<?xml version="1.0" encoding="UTF-8"?>
<flows>
  <flow id = "0" from = "fentradacruce-01-01" to = "fsalidaSid01-02" begin = "0" end = "300" no = "32" />
  <flow id = "1" from = "fentradacruce-01-01" to = "fsalidaSid02-01" begin = "0" end = "300" no = "5" />
  <flow id = "2" from = "fentradacruce-01-01" to = "fsalidaSid02-02" begin = "0" end = "300" no = "5" />
  <flow id = "3" from = "fentradacruce-01-01" to = "fsalidaSid02-03" begin = "0" end = "300" no = "14" />
  <flow id = "4" from = "fentradacruce-01-01" to = "fsalidacruceillia01-04" begin = "0" end = "300" no = "4" />
  <flow id = "5" from = "fentradacruce-01-01" to = "fsalidacruce188+05-01" begin = "0" end = "300" no = "3" />
  <flow id = "6" from = "fentradacruce-02-02" to = "fsalidaSid01-02" begin = "0" end = "300" no = "15" />
  <flow id = "7" from = "fentradacruce-02-02" to = "fsalidaSid02-01" begin = "0" end = "300" no = "3" />
  <flow id = "8" from = "fentradacruce-02-02" to = "fsalidaSid02-02" begin = "0" end = "300" no = "2" />
  <flow id = "9" from = "fentradacruce-02-02" to = "fsalidaSid02-03" begin = "0" end = "300" no = "7" />
  <flow id = "10" from = "fentradacruce-02-02" to = "fsalidacruceillia01-04" begin = "0" end = "300" no = "2" />
  <flow id = "11" from = "fentradacruce-02-02" to = "fsalidacruce188+05-01" begin = "0" end = "300" no = "2" />
  <flow id = "12" from = "fentradacruce-03-01" to = "fsalidaSid01-02" begin = "0" end = "300" no = "14" />
  <flow id = "13" from = "fentradacruce-03-01" to = "fsalidaSid02-01" begin = "0" end = "300" no = "3" />
  <flow id = "14" from = "fentradacruce-03-01" to = "fsalidaSid02-02" begin = "0" end = "300" no = "2" />
  <flow id = "15" from = "fentradacruce-03-01" to = "fsalidaSid02-03" begin = "0" end = "300" no = "7" />
  <flow id = "16" from = "fentradacruce-03-01" to = "fsalidacruceillia01-04" begin = "0" end = "300" no = "2" />
  <flow id = "17" from = "fentradacruce-03-01" to = "fsalidacruce188+05-01" begin = "0" end = "300" no = "2" />
  <flow id = "18" from = "fentradaSid02-03" to = "fsalidaSid01-02" begin = "0" end = "300" no = "54" />
  <flow id = "19" from = "fentradaSid02-03" to = "fsalidaSid02-01" begin = "0" end = "300" no = "10" />
  <flow id = "20" from = "fentradaSid02-03" to = "fsalidaSid02-02" begin = "0" end = "300" no = "10" />
  <flow id = "21" from = "fentradaSid02-03" to = "fsalidaSid02-03" begin = "0" end = "300" no = "27" />
  <flow id = "22" from = "fentradaSid02-03" to = "fsalidacruceillia01-04" begin = "0" end = "300" no = "7" />
  <flow id = "23" from = "fentradaSid02-03" to = "fsalidacruce188+05-01" begin = "0" end = "300" no = "7" />
  <flow id = "24" from = "fentradacruce+01-02" to = "fsalidaSid01-02" begin = "0" end = "300" no = "11" />
  <flow id = "25" from = "fentradacruce+01-02" to = "fsalidaSid02-01" begin = "0" end = "300" no = "2" />
  <flow id = "26" from = "fentradacruce+01-02" to = "fsalidaSid02-02" begin = "0" end = "300" no = "2" />
  <flow id = "27" from = "fentradacruce+01-02" to = "fsalidaSid02-03" begin = "0" end = "300" no = "7" />
  <flow id = "28" from = "fentradacruce+01-02" to = "fsalidacruceillia01-04" begin = "0" end = "300" no = "2" />
  <flow id = "29" from = "fentradacruce+01-02" to = "fsalidacruce188+05-01" begin = "0" end = "300" no = "2" />
  <flow id = "30" from = "fentradacruce+02-01" to = "fsalidaSid01-02" begin = "0" end = "300" no = "11" />
  <flow id = "31" from = "fentradacruce+02-01" to = "fsalidaSid02-01" begin = "0" end = "300" no = "2" />
  <flow id = "32" from = "fentradacruce+02-01" to = "fsalidaSid02-02" begin = "0" end = "300" no = "2" />
  <flow id = "33" from = "fentradacruce+02-01" to = "fsalidaSid02-03" begin = "0" end = "300" no = "7" />
  <flow id = "34" from = "fentradacruce+02-01" to = "fsalidacruceillia01-04" begin = "0" end = "300" no = "2" />
  <flow id = "35" from = "fentradacruce+02-01" to = "fsalidacruce188+05-01" begin = "0" end = "300" no = "2" />
  <flow id = "36" from = "fentradacruce+02-02" to = "fsalidaSid01-02" begin = "0" end = "300" no = "11" />
  <flow id = "37" from = "fentradacruce+02-02" to = "fsalidaSid02-01" begin = "0" end = "300" no = "2" />
  <flow id = "38" from = "fentradacruce+02-02" to = "fsalidaSid02-02" begin = "0" end = "300" no = "2" />
  <flow id = "39" from = "fentradacruce+02-02" to = "fsalidaSid02-03" begin = "0" end = "300" no = "6" />
  <flow id = "40" from = "fentradacruce+02-02" to = "fsalidacruceillia01-04" begin = "0" end = "300" no = "2" />
  <flow id = "41" from = "fentradacruce+02-02" to = "fsalidacruce188+05-01" begin = "0" end = "300" no = "2" />
  <flow id = "42" from = "fentradacrucepostnacion01-01" to = "fsalidaSid01-02" begin = "0" end = "300" no = "10" />
  <flow id = "43" from = "fentradacrucepostnacion01-01" to = "fsalidaSid02-01" begin = "0" end = "300" no = "2" />
  <flow id = "44" from = "fentradacrucepostnacion01-01" to = "fsalidaSid02-02" begin = "0" end = "300" no = "2" />
  <flow id = "45" from = "fentradacrucepostnacion01-01" to = "fsalidaSid02-03" begin = "0" end = "300" no = "6" />
  <flow id = "46" from = "fentradacrucepostnacion01-01" to = "fsalidacruceillia01-04" begin = "0" end = "300" no = "2" />
  <flow id = "47" from = "fentradacrucepostnacion01-01" to = "fsalidacruce188+05-01" begin = "0" end = "300" no = "2" />
  <flow id = "48" from = "fentradacrucepostnacion01-02" to = "fsalidaSid01-02" begin = "0" end = "300" no = "10" />
  <flow id = "49" from = "fentradacrucepostnacion01-02" to = "fsalidaSid02-01" begin = "0" end = "300" no = "2" />
  <flow id = "50" from = "fentradacrucepostnacion01-02" to = "fsalidaSid02-02" begin = "0" end = "300" no = "2" />
  <flow id = "51" from = "fentradacrucepostnacion01-02" to = "fsalidaSid02-03" begin = "0" end = "300" no = "6" />
  <flow id = "52" from = "fentradacrucepostnacion01-02" to = "fsalidacruceillia01-04" begin = "0" end = "300" no = "2" />
  <flow id = "53" from = "fentradacrucepostnacion01-02" to = "fsalidacruce188+05-01" begin = "0" end = "300" no = "2" />
  <flow id = "54" from = "fentradacrucepostnacion02-01" to = "fsalidaSid01-02" begin = "0" end = "300" no = "2" />
  <flow id = "55" from = "fentradacrucepostnacion02-01" to = "fsalidaSid02-03" begin = "0" end = "300" no = "1" />
  <flow id = "56" from = "fentradacrucepostnacion02-02" to = "fsalidaSid01-02" begin = "0" end = "300" no = "2" />
  <flow id = "57" from = "fentradacrucepostnacion02-02" to = "fsalidaSid02-03" begin = "0" end = "300" no = "1" />
  <flow id = "58" from = "fentradacruceillia01-01" to = "fsalidaSid01-02" begin = "0" end = "300" no = "9" />
  <flow id = "59" from = "fentradacruceillia01-01" to = "fsalidaSid02-01" begin = "0" end = "300" no = "2" />
  <flow id = "60" from = "fentradacruceillia01-01" to = "fsalidaSid02-02" begin = "0" end = "300" no = "2" />
  <flow id = "61" from = "fentradacruceillia01-01" to = "fsalidaSid02-03" begin = "0" end = "300" no = "6" />
  <flow id = "62" from = "fentradacruceillia01-01" to = "fsalidacruceillia01-04" begin = "0" end = "300" no = "2" />
  <flow id = "63" from = "fentradacruceillia01-01" to = "fsalidacruce188+05-01" begin = "0" end = "300" no = "2" />
  <flow id = "64" from = "fentradacruceillia01-02" to = "fsalidaSid01-02" begin = "0" end = "300" no = "9" />
  <flow id = "65" from = "fentradacruceillia01-02" to = "fsalidaSid02-01" begin = "0" end = "300" no = "2" />
  <flow id = "66" from = "fentradacruceillia01-02" to = "fsalidaSid02-02" begin = "0" end = "300" no = "2" />
  <flow id = "67" from = "fentradacruceillia01-02" to = "fsalidaSid02-03" begin = "0" end = "300" no = "6" />
  <flow id = "68" from = "fentradacruceillia01-02" to = "fsalidacruceillia01-04" begin = "0" end = "300" no = "2" />
  <flow id = "69" from = "fentradacruceillia01-02" to = "fsalidacruce188+05-01" begin = "0" end = "300" no = "2" />
  <flow id = "70" from = "fentradacruceillia01-04" to = "fsalidaSid01-02" begin = "0" end = "300" no = "8" />
  <flow id = "71" from = "fentradacruceillia01-04" to = "fsalidaSid02-01" begin = "0" end = "300" no = "2" />
  <flow id = "72" from = "fentradacruceillia01-04" to = "fsalidaSid02-02" begin = "0" end = "300" no = "2" />
  <flow id = "73" from = "fentradacruceillia01-04" to = "fsalidaSid02-03" begin = "0" end = "300" no = "6" />
  <flow id = "74" from = "fentradacruceillia01-04" to = "fsalidacruceillia01-04" begin = "0" end = "300" no = "2" />
  <flow id = "75" from = "fentradacruceillia01-04" to = "fsalidacruce188+05-01" begin = "0" end = "300" no = "2" />
  <flow id = "76" from = "fentradacruce188+02-03" to = "fsalidaSid01-02" begin = "0" end = "300" no = "3" />
  <flow id = "77" from = "fentradacruce188+02-03" to = "fsalidaSid02-01" begin = "0" end = "300" no = "1" />
  <flow id = "78" from = "fentradacruce188+02-03" to = "fsalidaSid02-02" begin = "0" end = "300" no = "1" />
  <flow id = "79" from = "fentradacruce188+02-03" to = "fsalidaSid02-03" begin = "0" end = "300" no = "2" />
  <flow id = "80" from = "fentradacruce188+02-03" to = "fsalidacruceillia01-04" begin = "0" end = "300" no = "1" />
  <flow id = "81" from = "fentradacruce188+02-03" to = "fsalidacruce188+05-01" begin = "0" end = "300" no = "1" />
  <flow id = "82" from = "fentradacruce188+02-04" to = "fsalidaSid01-02" begin = "0" end = "300" no = "5" />
  <flow id = "83" from = "fentradacruce188+02-04" to = "fsalidaSid02-01" begin = "0" end = "300" no = "1" />
  <flow id = "84" from = "fentradacruce188+02-04" to = "fsalidaSid02-02" begin = "0" end = "300" no = "1" />
  <flow id = "85" from = "fentradacruce188+02-04" to = "fsalidaSid02-03" begin = "0" end = "300" no = "4" />
  <flow id = "86" from = "fentradacruce188+02-04" to = "fsalidacruceillia01-04" begin = "0" end = "300" no = "1" />
  <flow id = "87" from = "fentradacruce188+02-04" to = "fsalidacruce188+05-01" begin = "0" end = "300" no = "1" />
  <flow id = "88" from = "fentradacruce188+03-03" to = "fsalidaSid01-02" begin = "0" end = "300" no = "3" />
  <flow id = "89" from = "fentradacruce188+03-03" to = "fsalidaSid02-01" begin = "0" end = "300" no = "1" />
  <flow id = "90" from = "fentradacruce188+03-03" to = "fsalidaSid02-02" begin = "0" end = "300" no = "1" />
  <flow id = "91" from = "fentradacruce188+03-03" to = "fsalidaSid02-03" begin = "0" end = "300" no = "2" />
  <flow id = "92" from = "fentradacruce188+03-03" to = "fsalidacruceillia01-04" begin = "0" end = "300" no = "1" />
  <flow id = "93" from = "fentradacruce188+03-03" to = "fsalidacruce188+05-01" begin = "0" end = "300" no = "1" />
  <flow id = "94" from = "fentradacruce188+04-03" to = "fsalidaSid01-02" begin = "0" end = "300" no = "3" />
  <flow id = "95" from = "fentradacruce188+04-03" to = "fsalidaSid02-01" begin = "0" end = "300" no = "1" />
  <flow id = "96" from = "fentradacruce188+04-03" to = "fsalidaSid02-02" begin = "0" end = "300" no = "1" />
  <flow id = "97" from = "fentradacruce188+04-03" to = "fsalidaSid02-03" begin = "0" end = "300" no = "2" />
  <flow id = "98" from = "fentradacruce188+04-03" to = "fsalidacruceillia01-04" begin = "0" end = "300" no = "1" />
  <flow id = "99" from = "fentradacruce188+04-03" to = "fsalidacruce188+05-01" begin = "0" end = "300" no = "1" />
  <flow id = "100" from = "fentradacruce188+04-04" to = "fsalidaSid01-02" begin = "0" end = "300" no = "3" />
  <flow id = "101" from = "fentradacruce188+04-04" to = "fsalidaSid02-01" begin = "0" end = "300" no = "1" />
  <flow id = "102" from = "fentradacruce188+04-04" to = "fsalidaSid02-02" begin = "0" end = "300" no = "1" />
  <flow id = "103" from = "fentradacruce188+04-04" to = "fsalidaSid02-03" begin = "0" end = "300" no = "2" />
  <flow id = "104" from = "fentradacruce188+04-04" to = "fsalidacruceillia01-04" begin = "0" end = "300" no = "1" />
  <flow id = "105" from = "fentradacruce188+04-04" to = "fsalidacruce188+05-01" begin = "0" end = "300" no = "1" />
  <flow id = "106" from = "fentradacruce188+05-01" to = "fsalidaSid01-02" begin = "0" end = "300" no = "15" />
  <flow id = "107" from = "fentradacruce188+05-01" to = "fsalidaSid02-01" begin = "0" end = "300" no = "4" />
  <flow id = "108" from = "fentradacruce188+05-01" to = "fsalidaSid02-02" begin = "0" end = "300" no = "4" />
  <flow id = "109" from = "fentradacruce188+05-01" to = "fsalidaSid02-03" begin = "0" end = "300" no = "11" />
  <flow id = "110" from = "fentradacruce188+05-01" to = "fsalidacruceillia01-04" begin = "0" end = "300" no = "3" />
  <flow id = "111" from = "fentradacruce188+05-01" to = "fsalidacruce188+05-01" begin = "0" end = "300" no = "3" />
  <flow id = "112" from = "fentradacrucenacion+01-03" to = "fsalidaSid01-02" begin = "0" end = "300" no = "3" />
  <flow id = "113" from = "fentradacrucenacion+01-03" to = "fsalidaSid02-01" begin = "0" end = "300" no = "1" />
  <flow id = "114" from = "fentradacrucenacion+01-03" to = "fsalidaSid02-02" begin = "0" end = "300" no = "1" />
  <flow id = "115" from = "fentradacrucenacion+01-03" to = "fsalidaSid02-03" begin = "0" end = "300" no = "2" />
  <flow id = "116" from = "fentradacrucenacion+01-03" to = "fsalidacruceillia01-04" begin = "0" end = "300" no = "1" />
  <flow id = "117" from = "fentradacrucenacion+01-03" to = "fsalidacruce188+05-01" begin = "0" end = "300" no = "1" />
  <flow id = "118" from = "fentradacrucenacion+01-04" to = "fsalidaSid01-02" begin = "0" end = "300" no = "3" />
  <flow id = "119" from = "fentradacrucenacion+01-04" to = "fsalidaSid02-01" begin = "0" end = "300" no = "1" />
  <flow id = "120" from = "fentradacrucenacion+01-04" to = "fsalidaSid02-02" begin = "0" end = "300" no = "1" />
  <flow id = "121" from = "fentradacrucenacion+01-04" to = "fsalidaSid02-03" begin = "0" end = "300" no = "2" />
  <flow id = "122" from = "fentradacrucenacion+01-04" to = "fsalidacruceillia01-04" begin = "0" end = "300" no = "1" />
  <flow id = "123" from = "fentradacrucenacion+01-04" to = "fsalidacruce188+05-01" begin = "0" end = "300" no = "1" />
  <flow id = "124" from = "fentradacrucenacion+02-03" to = "fsalidaSid01-02" begin = "0" end = "300" no = "3" />
  <flow id = "125" from = "fentradacrucenacion+02-03" to = "fsalidaSid02-01" begin = "0" end = "300" no = "1" />
  <flow id = "126" from = "fentradacrucenacion+02-03" to = "fsalidaSid02-02" begin = "0" end = "300" no = "1" />
  <flow id = "127" from = "fentradacrucenacion+02-03" to = "fsalidaSid02-03" begin = "0" end = "300" no = "2" />
  <flow id = "128" from = "fentradacrucenacion+02-03" to = "fsalidacruceillia01-04" begin = "0" end = "300" no = "1" />
  <flow id = "129" from = "fentradacrucenacion+02-03" to = "fsalidacruce188+05-01" begin = "0" end = "300" no = "1" />
  <flow id = "130" from = "fentradacrucenacion+02-04" to = "fsalidaSid01-02" begin = "0" end = "300" no = "3" />
  <flow id = "131" from = "fentradacrucenacion+02-04" to = "fsalidaSid02-01" begin = "0" end = "300" no = "1" />
  <flow id = "132" from = "fentradacrucenacion+02-04" to = "fsalidaSid02-02" begin = "0" end = "300" no = "1" />
  <flow id = "133" from = "fentradacrucenacion+02-04" to = "fsalidaSid02-03" begin = "0" end = "300" no = "2" />
  <flow id = "134" from = "fentradacrucenacion+02-04" to = "fsalidacruceillia01-04" begin = "0" end = "300" no = "1" />
  <flow id = "135" from = "fentradacrucenacion+02-04" to = "fsalidacruce188+05-01" begin = "0" end = "300" no = "1" />
  <flow id = "136" from = "fentradacrucenacion+03-03" to = "fsalidaSid01-02" begin = "0" end = "300" no = "3" />
  <flow id = "137" from = "fentradacrucenacion+03-03" to = "fsalidaSid02-01" begin = "0" end = "300" no = "1" />
  <flow id = "138" from = "fentradacrucenacion+03-03" to = "fsalidaSid02-02" begin = "0" end = "300" no = "1" />
  <flow id = "139" from = "fentradacrucenacion+03-03" to = "fsalidaSid02-03" begin = "0" end = "300" no = "2" />
  <flow id = "140" from = "fentradacrucenacion+03-03" to = "fsalidacruceillia01-04" begin = "0" end = "300" no = "1" />
  <flow id = "141" from = "fentradacrucenacion+03-03" to = "fsalidacruce188+05-01" begin = "0" end = "300" no = "1" />
  <flow id = "142" from = "fentradacrucenacion+03-04" to = "fsalidaSid01-02" begin = "0" end = "300" no = "2" />
  <flow id = "143" from = "fentradacrucenacion+03-04" to = "fsalidaSid02-01" begin = "0" end = "300" no = "1" />
  <flow id = "144" from = "fentradacrucenacion+03-04" to = "fsalidaSid02-02" begin = "0" end = "300" no = "1" />
  <flow id = "145" from = "fentradacrucenacion+03-04" to = "fsalidaSid02-03" begin = "0" end = "300" no = "2" />
  <flow id = "146" from = "fentradacrucenacion+03-04" to = "fsalidacruceillia01-04" begin = "0" end = "300" no = "1" />
  <flow id = "147" from = "fentradacrucenacion+03-04" to = "fsalidacruce188+05-01" begin = "0" end = "300" no = "1" />
  <flow id = "148" from = "fentradacrucenacion+04-03" to = "fsalidaSid01-02" begin = "0" end = "300" no = "2" />
  <flow id = "149" from = "fentradacrucenacion+04-03" to = "fsalidaSid02-01" begin = "0" end = "300" no = "1" />
  <flow id = "150" from = "fentradacrucenacion+04-03" to = "fsalidaSid02-02" begin = "0" end = "300" no = "1" />
  <flow id = "151" from = "fentradacrucenacion+04-03" to = "fsalidaSid02-03" begin = "0" end = "300" no = "2" />
  <flow id = "152" from = "fentradacrucenacion+04-03" to = "fsalidacruceillia01-04" begin = "0" end = "300" no = "1" />
  <flow id = "153" from = "fentradacrucenacion+04-03" to = "fsalidacruce188+05-01" begin = "0" end = "300" no = "1" />
  <flow id = "154" from = "fentradacrucenacion+04-04" to = "fsalidaSid01-02" begin = "0" end = "300" no = "2" />
  <flow id = "155" from = "fentradacrucenacion+04-04" to = "fsalidaSid02-01" begin = "0" end = "300" no = "1" />
  <flow id = "156" from = "fentradacrucenacion+04-04" to = "fsalidaSid02-02" begin = "0" end = "300" no = "1" />
  <flow id = "157" from = "fentradacrucenacion+04-04" to = "fsalidaSid02-03" begin = "0" end = "300" no = "2" />
  <flow id = "158" from = "fentradacrucenacion+04-04" to = "fsalidacruceillia01-04" begin = "0" end = "300" no = "1" />
  <flow id = "159" from = "fentradacrucenacion+04-04" to = "fsalidacruce188+05-01" begin = "0" end = "300" no = "1" />
  <flow id = "160" from = "fentradacrucenacion+05-01" to = "fsalidaSid01-02" begin = "0" end = "300" no = "2" />
  <flow id = "161" from = "fentradacrucenacion+05-01" to = "fsalidaSid02-01" begin = "0" end = "300" no = "1" />
  <flow id = "162" from = "fentradacrucenacion+05-01" to = "fsalidaSid02-02" begin = "0" end = "300" no = "1" />
  <flow id = "163" from = "fentradacrucenacion+05-01" to = "fsalidaSid02-03" begin = "0" end = "300" no = "2" />
  <flow id = "164" from = "fentradacrucenacion+05-01" to = "fsalidacruceillia01-04" begin = "0" end = "300" no = "1" />
  <flow id = "165" from = "fentradacrucenacion+05-01" to = "fsalidacruce188+05-01" begin = "0" end = "300" no = "1" />
  <flow id = "166" from = "fentradacrucenacion+05-03" to = "fsalidaSid01-02" begin = "0" end = "300" no = "2" />
  <flow id = "167" from = "fentradacrucenacion+05-03" to = "fsalidaSid02-01" begin = "0" end = "300" no = "1" />
  <flow id = "168" from = "fentradacrucenacion+05-03" to = "fsalidaSid02-02" begin = "0" end = "300" no = "1" />
  <flow id = "169" from = "fentradacrucenacion+05-03" to = "fsalidaSid02-03" begin = "0" end = "300" no = "2" />
  <flow id = "170" from = "fentradacrucenacion+05-03" to = "fsalidacruceillia01-04" begin = "0" end = "300" no = "1" />
  <flow id = "171" from = "fentradacrucenacion+05-03" to = "fsalidacruce188+05-01" begin = "0" end = "300" no = "1" />
  <flow id = "172" from = "fentradacrucenacion+05-04" to = "fsalidaSid01-02" begin = "0" end = "300" no = "2" />
  <flow id = "173" from = "fentradacrucenacion+05-04" to = "fsalidaSid02-01" begin = "0" end = "300" no = "1" />
  <flow id = "174" from = "fentradacrucenacion+05-04" to = "fsalidaSid02-02" begin = "0" end = "300" no = "1" />
  <flow id = "175" from = "fentradacrucenacion+05-04" to = "fsalidaSid02-03" begin = "0" end = "300" no = "2" />
  <flow id = "176" from = "fentradacrucenacion+05-04" to = "fsalidacruceillia01-04" begin = "0" end = "300" no = "1" />
  <flow id = "177" from = "fentradacrucenacion+05-04" to = "fsalidacruce188+05-01" begin = "0" end = "300" no = "1" />
</flows>
