<?xml version=1.0 encoding=iso-8859-1?>
<flows>
  <flow id = "0" from = "fsalidacruce-01-01" to = "fsalidacruce-01-01" begin = "0"end = "300" no = "0" />
  <flow id = "1" from = "fsalidacruce-01-01" to = "fentradacruce-01-01" begin = "0"end = "300" no = "0" />
  <flow id = "2" from = "fsalidacruce-01-01" to = "fsalidacruce-01-02" begin = "0"end = "300" no = "0" />
  <flow id = "3" from = "fsalidacruce-01-01" to = "fentradacruce-01-02" begin = "0"end = "300" no = "0" />
  <flow id = "4" from = "fsalidacruce-01-01" to = "fsalidacruce-02-01" begin = "0"end = "300" no = "0" />
  <flow id = "5" from = "fsalidacruce-01-01" to = "fentradacruce-02-01" begin = "0"end = "300" no = "0" />
  <flow id = "6" from = "fsalidacruce-01-01" to = "fsalidacruce-02-02" begin = "0"end = "300" no = "0" />
  <flow id = "7" from = "fsalidacruce-01-01" to = "fentradacruce-02-02" begin = "0"end = "300" no = "0" />
  <flow id = "8" from = "fsalidacruce-01-01" to = "fsalidacruce-03-01" begin = "0"end = "300" no = "0" />
  <flow id = "9" from = "fsalidacruce-01-01" to = "fentradacruce-03-01" begin = "0"end = "300" no = "0" />
  <flow id = "10" from = "fsalidacruce-01-01" to = "fsalidaSid01-02" begin = "0"end = "300" no = "0" />
  <flow id = "11" from = "fsalidacruce-01-01" to = "fentradaSid01-02" begin = "0"end = "300" no = "0" />
  <flow id = "12" from = "fsalidacruce-01-01" to = "fsalidaSid02-01" begin = "0"end = "300" no = "0" />
  <flow id = "13" from = "fsalidacruce-01-01" to = "fentradaSid02-01" begin = "0"end = "300" no = "0" />
  <flow id = "14" from = "fsalidacruce-01-01" to = "fsalidaSid02-02" begin = "0"end = "300" no = "0" />
  <flow id = "15" from = "fsalidacruce-01-01" to = "fentradaSid02-02" begin = "0"end = "300" no = "0" />
  <flow id = "16" from = "fsalidacruce-01-01" to = "fsalidaSid02-03" begin = "0"end = "300" no = "0" />
  <flow id = "17" from = "fsalidacruce-01-01" to = "fentradaSid02-03" begin = "0"end = "300" no = "0" />
  <flow id = "18" from = "fsalidacruce-01-01" to = "fsalidacruce+01-01" begin = "0"end = "300" no = "0" />
  <flow id = "19" from = "fsalidacruce-01-01" to = "fentradacruce+01-01" begin = "0"end = "300" no = "0" />
  <flow id = "20" from = "fsalidacruce-01-01" to = "fsalidacruce+01-02" begin = "0"end = "300" no = "0" />
  <flow id = "21" from = "fsalidacruce-01-01" to = "fentradacruce+01-02" begin = "0"end = "300" no = "0" />
  <flow id = "22" from = "fsalidacruce-01-01" to = "fsalidacruce+02-01" begin = "0"end = "300" no = "0" />
  <flow id = "23" from = "fsalidacruce-01-01" to = "fentradacruce+02-01" begin = "0"end = "300" no = "0" />
  <flow id = "24" from = "fsalidacruce-01-01" to = "fsalidacruce+02-02" begin = "0"end = "300" no = "0" />
  <flow id = "25" from = "fsalidacruce-01-01" to = "fentradacruce+02-02" begin = "0"end = "300" no = "0" />
  <flow id = "26" from = "fsalidacruce-01-01" to = "fsalidacrucenacion-02" begin = "0"end = "300" no = "0" />
  <flow id = "27" from = "fsalidacruce-01-01" to = "fentradacrucenacion-02" begin = "0"end = "300" no = "0" />
  <flow id = "28" from = "fsalidacruce-01-01" to = "fsalidacrucepostnacion01-01" begin = "0"end = "300" no = "0" />
  <flow id = "29" from = "fsalidacruce-01-01" to = "fentradacrucepostnacion01-01" begin = "0"end = "300" no = "0" />
  <flow id = "30" from = "fsalidacruce-01-01" to = "fsalidacrucepostnacion01-02" begin = "0"end = "300" no = "0" />
  <flow id = "31" from = "fsalidacruce-01-01" to = "fentradacrucepostnacion01-02" begin = "0"end = "300" no = "0" />
  <flow id = "32" from = "fsalidacruce-01-01" to = "fsalidacrucepostnacion02-01" begin = "0"end = "300" no = "0" />
  <flow id = "33" from = "fsalidacruce-01-01" to = "fentradacrucepostnacion02-01" begin = "0"end = "300" no = "0" />
  <flow id = "34" from = "fsalidacruce-01-01" to = "fsalidacrucepostnacion02-02" begin = "0"end = "300" no = "0" />
  <flow id = "35" from = "fsalidacruce-01-01" to = "fentradacrucepostnacion02-02" begin = "0"end = "300" no = "0" />
  <flow id = "36" from = "fsalidacruce-01-01" to = "fsalidacruceillia01-01" begin = "0"end = "300" no = "0" />
  <flow id = "37" from = "fsalidacruce-01-01" to = "fentradacruceillia01-01" begin = "0"end = "300" no = "0" />
  <flow id = "38" from = "fsalidacruce-01-01" to = "fsalidacruceillia01-02" begin = "0"end = "300" no = "0" />
  <flow id = "39" from = "fsalidacruce-01-01" to = "fentradacruceillia01-02" begin = "0"end = "300" no = "0" />
  <flow id = "40" from = "fsalidacruce-01-01" to = "fsalidacruceillia01-04" begin = "0"end = "300" no = "0" />
  <flow id = "41" from = "fsalidacruce-01-01" to = "fentradacruceillia01-04" begin = "0"end = "300" no = "0" />
  <flow id = "42" from = "fsalidacruce-01-01" to = "fsalidacruce188+01-03" begin = "0"end = "300" no = "0" />
  <flow id = "43" from = "fsalidacruce-01-01" to = "fentradacruce188+01-03" begin = "0"end = "300" no = "0" />
  <flow id = "44" from = "fsalidacruce-01-01" to = "fsalidacruce188+01-04" begin = "0"end = "300" no = "0" />
  <flow id = "45" from = "fsalidacruce-01-01" to = "fentradacruce188+01-04" begin = "0"end = "300" no = "0" />
  <flow id = "46" from = "fsalidacruce-01-01" to = "fsalidacruce188+02-03" begin = "0"end = "300" no = "0" />
  <flow id = "47" from = "fsalidacruce-01-01" to = "fentradacruce188+02-03" begin = "0"end = "300" no = "0" />
  <flow id = "48" from = "fsalidacruce-01-01" to = "fsalidacruce188+02-04" begin = "0"end = "300" no = "0" />
  <flow id = "49" from = "fsalidacruce-01-01" to = "fentradacruce188+02-04" begin = "0"end = "300" no = "0" />
  <flow id = "50" from = "fsalidacruce-01-01" to = "fsalidacruce188+03-03" begin = "0"end = "300" no = "0" />
  <flow id = "51" from = "fsalidacruce-01-01" to = "fentradacruce188+03-03" begin = "0"end = "300" no = "0" />
  <flow id = "52" from = "fsalidacruce-01-01" to = "fsalidacruce188+03-04" begin = "0"end = "300" no = "0" />
  <flow id = "53" from = "fsalidacruce-01-01" to = "fentradacruce188+03-04" begin = "0"end = "300" no = "0" />
  <flow id = "54" from = "fsalidacruce-01-01" to = "fsalidacruce188+04-03" begin = "0"end = "300" no = "0" />
  <flow id = "55" from = "fsalidacruce-01-01" to = "fentradacruce188+04-03" begin = "0"end = "300" no = "0" />
  <flow id = "56" from = "fsalidacruce-01-01" to = "fsalidacruce188+04-04" begin = "0"end = "300" no = "0" />
  <flow id = "57" from = "fsalidacruce-01-01" to = "fentradacruce188+04-04" begin = "0"end = "300" no = "0" />
  <flow id = "58" from = "fsalidacruce-01-01" to = "fsalidacruce188+05-01" begin = "0"end = "300" no = "0" />
  <flow id = "59" from = "fsalidacruce-01-01" to = "fentradacruce188+05-01" begin = "0"end = "300" no = "0" />
  <flow id = "60" from = "fsalidacruce-01-01" to = "fsalidacruce188+05-04" begin = "0"end = "300" no = "0" />
  <flow id = "61" from = "fsalidacruce-01-01" to = "fentradacruce188+05-03" begin = "0"end = "300" no = "0" />
  <flow id = "62" from = "fsalidacruce-01-01" to = "fsalidacruce188+05-04" begin = "0"end = "300" no = "0" />
  <flow id = "63" from = "fsalidacruce-01-01" to = "fentradacruce188+05-04" begin = "0"end = "300" no = "0" />
  <flow id = "64" from = "fsalidacruce-01-01" to = "fsalidacrucenacion+01-03" begin = "0"end = "300" no = "0" />
  <flow id = "65" from = "fsalidacruce-01-01" to = "fentradacrucenacion+01-03" begin = "0"end = "300" no = "0" />
  <flow id = "66" from = "fsalidacruce-01-01" to = "fsalidacrucenacion+01-04" begin = "0"end = "300" no = "0" />
  <flow id = "67" from = "fsalidacruce-01-01" to = "fentradacrucenacion+01-04" begin = "0"end = "300" no = "0" />
  <flow id = "68" from = "fsalidacruce-01-01" to = "fsalidacrucenacion+02-03" begin = "0"end = "300" no = "0" />
  <flow id = "69" from = "fsalidacruce-01-01" to = "fentradacrucenacion+02-03" begin = "0"end = "300" no = "0" />
  <flow id = "70" from = "fsalidacruce-01-01" to = "fsalidacrucenacion+02-04" begin = "0"end = "300" no = "0" />
  <flow id = "71" from = "fsalidacruce-01-01" to = "fentradacrucenacion+02-04" begin = "0"end = "300" no = "0" />
  <flow id = "72" from = "fsalidacruce-01-01" to = "fsalidacrucenacion+03-03" begin = "0"end = "300" no = "0" />
  <flow id = "73" from = "fsalidacruce-01-01" to = "fentradacrucenacion+03-03" begin = "0"end = "300" no = "0" />
  <flow id = "74" from = "fsalidacruce-01-01" to = "fsalidacrucenacion+03-04" begin = "0"end = "300" no = "0" />
  <flow id = "75" from = "fsalidacruce-01-01" to = "fentradacrucenacion+03-04" begin = "0"end = "300" no = "0" />
  <flow id = "76" from = "fsalidacruce-01-01" to = "fsalidacrucenacion+04-03" begin = "0"end = "300" no = "0" />
  <flow id = "77" from = "fsalidacruce-01-01" to = "fentradacrucenacion+04-03" begin = "0"end = "300" no = "0" />
  <flow id = "78" from = "fsalidacruce-01-01" to = "fsalidacrucenacion+04-04" begin = "0"end = "300" no = "0" />
  <flow id = "79" from = "fsalidacruce-01-01" to = "fentradacrucenacion+04-04" begin = "0"end = "300" no = "0" />
  <flow id = "80" from = "fsalidacruce-01-01" to = "fsalidacrucenacion+05-01" begin = "0"end = "300" no = "0" />
  <flow id = "81" from = "fsalidacruce-01-01" to = "fentradacrucenacion+05-01" begin = "0"end = "300" no = "0" />
  <flow id = "82" from = "fsalidacruce-01-01" to = "fsalidacrucenacion+05-03" begin = "0"end = "300" no = "0" />
  <flow id = "83" from = "fsalidacruce-01-01" to = "fentradacrucenacion+05-03" begin = "0"end = "300" no = "0" />
  <flow id = "84" from = "fsalidacruce-01-01" to = "fsalidacrucenacion+05-04" begin = "0"end = "300" no = "0" />
  <flow id = "85" from = "fsalidacruce-01-01" to = "fentradacrucenacion+05-04" begin = "0"end = "300" no = "0" />
  <flow id = "86" from = "fentradacruce-01-01" to = "fsalidacruce-01-01" begin = "0"end = "300" no = "0" />
  <flow id = "87" from = "fentradacruce-01-01" to = "fentradacruce-01-01" begin = "0"end = "300" no = "0" />
  <flow id = "88" from = "fentradacruce-01-01" to = "fsalidacruce-01-02" begin = "0"end = "300" no = "0" />
  <flow id = "89" from = "fentradacruce-01-01" to = "fentradacruce-01-02" begin = "0"end = "300" no = "0" />
  <flow id = "90" from = "fentradacruce-01-01" to = "fsalidacruce-02-01" begin = "0"end = "300" no = "0" />
  <flow id = "91" from = "fentradacruce-01-01" to = "fentradacruce-02-01" begin = "0"end = "300" no = "0" />
  <flow id = "92" from = "fentradacruce-01-01" to = "fsalidacruce-02-02" begin = "0"end = "300" no = "0" />
  <flow id = "93" from = "fentradacruce-01-01" to = "fentradacruce-02-02" begin = "0"end = "300" no = "0" />
  <flow id = "94" from = "fentradacruce-01-01" to = "fsalidacruce-03-01" begin = "0"end = "300" no = "0" />
  <flow id = "95" from = "fentradacruce-01-01" to = "fentradacruce-03-01" begin = "0"end = "300" no = "0" />
  <flow id = "96" from = "fentradacruce-01-01" to = "fsalidaSid01-02" begin = "0"end = "300" no = "36" />
  <flow id = "97" from = "fentradacruce-01-01" to = "fentradaSid01-02" begin = "0"end = "300" no = "0" />
  <flow id = "98" from = "fentradacruce-01-01" to = "fsalidaSid02-01" begin = "0"end = "300" no = "9" />
  <flow id = "99" from = "fentradacruce-01-01" to = "fentradaSid02-01" begin = "0"end = "300" no = "0" />
  <flow id = "100" from = "fentradacruce-01-01" to = "fsalidaSid02-02" begin = "0"end = "300" no = "5" />
  <flow id = "101" from = "fentradacruce-01-01" to = "fentradaSid02-02" begin = "0"end = "300" no = "0" />
  <flow id = "102" from = "fentradacruce-01-01" to = "fsalidaSid02-03" begin = "0"end = "300" no = "20" />
  <flow id = "103" from = "fentradacruce-01-01" to = "fentradaSid02-03" begin = "0"end = "300" no = "0" />
  <flow id = "104" from = "fentradacruce-01-01" to = "fsalidacruce+01-01" begin = "0"end = "300" no = "0" />
  <flow id = "105" from = "fentradacruce-01-01" to = "fentradacruce+01-01" begin = "0"end = "300" no = "0" />
  <flow id = "106" from = "fentradacruce-01-01" to = "fsalidacruce+01-02" begin = "0"end = "300" no = "0" />
  <flow id = "107" from = "fentradacruce-01-01" to = "fentradacruce+01-02" begin = "0"end = "300" no = "0" />
  <flow id = "108" from = "fentradacruce-01-01" to = "fsalidacruce+02-01" begin = "0"end = "300" no = "0" />
  <flow id = "109" from = "fentradacruce-01-01" to = "fentradacruce+02-01" begin = "0"end = "300" no = "0" />
  <flow id = "110" from = "fentradacruce-01-01" to = "fsalidacruce+02-02" begin = "0"end = "300" no = "0" />
  <flow id = "111" from = "fentradacruce-01-01" to = "fentradacruce+02-02" begin = "0"end = "300" no = "0" />
  <flow id = "112" from = "fentradacruce-01-01" to = "fsalidacrucenacion-02" begin = "0"end = "300" no = "0" />
  <flow id = "113" from = "fentradacruce-01-01" to = "fentradacrucenacion-02" begin = "0"end = "300" no = "0" />
  <flow id = "114" from = "fentradacruce-01-01" to = "fsalidacrucepostnacion01-01" begin = "0"end = "300" no = "0" />
  <flow id = "115" from = "fentradacruce-01-01" to = "fentradacrucepostnacion01-01" begin = "0"end = "300" no = "0" />
  <flow id = "116" from = "fentradacruce-01-01" to = "fsalidacrucepostnacion01-02" begin = "0"end = "300" no = "0" />
  <flow id = "117" from = "fentradacruce-01-01" to = "fentradacrucepostnacion01-02" begin = "0"end = "300" no = "0" />
  <flow id = "118" from = "fentradacruce-01-01" to = "fsalidacrucepostnacion02-01" begin = "0"end = "300" no = "0" />
  <flow id = "119" from = "fentradacruce-01-01" to = "fentradacrucepostnacion02-01" begin = "0"end = "300" no = "0" />
  <flow id = "120" from = "fentradacruce-01-01" to = "fsalidacrucepostnacion02-02" begin = "0"end = "300" no = "0" />
  <flow id = "121" from = "fentradacruce-01-01" to = "fentradacrucepostnacion02-02" begin = "0"end = "300" no = "0" />
  <flow id = "122" from = "fentradacruce-01-01" to = "fsalidacruceillia01-01" begin = "0"end = "300" no = "0" />
  <flow id = "123" from = "fentradacruce-01-01" to = "fentradacruceillia01-01" begin = "0"end = "300" no = "0" />
  <flow id = "124" from = "fentradacruce-01-01" to = "fsalidacruceillia01-02" begin = "0"end = "300" no = "0" />
  <flow id = "125" from = "fentradacruce-01-01" to = "fentradacruceillia01-02" begin = "0"end = "300" no = "0" />
  <flow id = "126" from = "fentradacruce-01-01" to = "fsalidacruceillia01-04" begin = "0"end = "300" no = "3" />
  <flow id = "127" from = "fentradacruce-01-01" to = "fentradacruceillia01-04" begin = "0"end = "300" no = "0" />
  <flow id = "128" from = "fentradacruce-01-01" to = "fsalidacruce188+01-03" begin = "0"end = "300" no = "0" />
  <flow id = "129" from = "fentradacruce-01-01" to = "fentradacruce188+01-03" begin = "0"end = "300" no = "0" />
  <flow id = "130" from = "fentradacruce-01-01" to = "fsalidacruce188+01-04" begin = "0"end = "300" no = "0" />
  <flow id = "131" from = "fentradacruce-01-01" to = "fentradacruce188+01-04" begin = "0"end = "300" no = "0" />
  <flow id = "132" from = "fentradacruce-01-01" to = "fsalidacruce188+02-03" begin = "0"end = "300" no = "0" />
  <flow id = "133" from = "fentradacruce-01-01" to = "fentradacruce188+02-03" begin = "0"end = "300" no = "0" />
  <flow id = "134" from = "fentradacruce-01-01" to = "fsalidacruce188+02-04" begin = "0"end = "300" no = "0" />
  <flow id = "135" from = "fentradacruce-01-01" to = "fentradacruce188+02-04" begin = "0"end = "300" no = "0" />
  <flow id = "136" from = "fentradacruce-01-01" to = "fsalidacruce188+03-03" begin = "0"end = "300" no = "0" />
  <flow id = "137" from = "fentradacruce-01-01" to = "fentradacruce188+03-03" begin = "0"end = "300" no = "0" />
  <flow id = "138" from = "fentradacruce-01-01" to = "fsalidacruce188+03-04" begin = "0"end = "300" no = "0" />
  <flow id = "139" from = "fentradacruce-01-01" to = "fentradacruce188+03-04" begin = "0"end = "300" no = "0" />
  <flow id = "140" from = "fentradacruce-01-01" to = "fsalidacruce188+04-03" begin = "0"end = "300" no = "0" />
  <flow id = "141" from = "fentradacruce-01-01" to = "fentradacruce188+04-03" begin = "0"end = "300" no = "0" />
  <flow id = "142" from = "fentradacruce-01-01" to = "fsalidacruce188+04-04" begin = "0"end = "300" no = "0" />
  <flow id = "143" from = "fentradacruce-01-01" to = "fentradacruce188+04-04" begin = "0"end = "300" no = "0" />
  <flow id = "144" from = "fentradacruce-01-01" to = "fsalidacruce188+05-01" begin = "0"end = "300" no = "3" />
  <flow id = "145" from = "fentradacruce-01-01" to = "fentradacruce188+05-01" begin = "0"end = "300" no = "0" />
  <flow id = "146" from = "fentradacruce-01-01" to = "fsalidacruce188+05-04" begin = "0"end = "300" no = "0" />
  <flow id = "147" from = "fentradacruce-01-01" to = "fentradacruce188+05-03" begin = "0"end = "300" no = "0" />
  <flow id = "148" from = "fentradacruce-01-01" to = "fsalidacruce188+05-04" begin = "0"end = "300" no = "0" />
  <flow id = "149" from = "fentradacruce-01-01" to = "fentradacruce188+05-04" begin = "0"end = "300" no = "0" />
  <flow id = "150" from = "fentradacruce-01-01" to = "fsalidacrucenacion+01-03" begin = "0"end = "300" no = "0" />
  <flow id = "151" from = "fentradacruce-01-01" to = "fentradacrucenacion+01-03" begin = "0"end = "300" no = "0" />
  <flow id = "152" from = "fentradacruce-01-01" to = "fsalidacrucenacion+01-04" begin = "0"end = "300" no = "0" />
  <flow id = "153" from = "fentradacruce-01-01" to = "fentradacrucenacion+01-04" begin = "0"end = "300" no = "0" />
  <flow id = "154" from = "fentradacruce-01-01" to = "fsalidacrucenacion+02-03" begin = "0"end = "300" no = "0" />
  <flow id = "155" from = "fentradacruce-01-01" to = "fentradacrucenacion+02-03" begin = "0"end = "300" no = "0" />
  <flow id = "156" from = "fentradacruce-01-01" to = "fsalidacrucenacion+02-04" begin = "0"end = "300" no = "0" />
  <flow id = "157" from = "fentradacruce-01-01" to = "fentradacrucenacion+02-04" begin = "0"end = "300" no = "0" />
  <flow id = "158" from = "fentradacruce-01-01" to = "fsalidacrucenacion+03-03" begin = "0"end = "300" no = "0" />
  <flow id = "159" from = "fentradacruce-01-01" to = "fentradacrucenacion+03-03" begin = "0"end = "300" no = "0" />
  <flow id = "160" from = "fentradacruce-01-01" to = "fsalidacrucenacion+03-04" begin = "0"end = "300" no = "0" />
  <flow id = "161" from = "fentradacruce-01-01" to = "fentradacrucenacion+03-04" begin = "0"end = "300" no = "0" />
  <flow id = "162" from = "fentradacruce-01-01" to = "fsalidacrucenacion+04-03" begin = "0"end = "300" no = "0" />
  <flow id = "163" from = "fentradacruce-01-01" to = "fentradacrucenacion+04-03" begin = "0"end = "300" no = "0" />
  <flow id = "164" from = "fentradacruce-01-01" to = "fsalidacrucenacion+04-04" begin = "0"end = "300" no = "0" />
  <flow id = "165" from = "fentradacruce-01-01" to = "fentradacrucenacion+04-04" begin = "0"end = "300" no = "0" />
  <flow id = "166" from = "fentradacruce-01-01" to = "fsalidacrucenacion+05-01" begin = "0"end = "300" no = "0" />
  <flow id = "167" from = "fentradacruce-01-01" to = "fentradacrucenacion+05-01" begin = "0"end = "300" no = "0" />
  <flow id = "168" from = "fentradacruce-01-01" to = "fsalidacrucenacion+05-03" begin = "0"end = "300" no = "0" />
  <flow id = "169" from = "fentradacruce-01-01" to = "fentradacrucenacion+05-03" begin = "0"end = "300" no = "0" />
  <flow id = "170" from = "fentradacruce-01-01" to = "fsalidacrucenacion+05-04" begin = "0"end = "300" no = "0" />
  <flow id = "171" from = "fentradacruce-01-01" to = "fentradacrucenacion+05-04" begin = "0"end = "300" no = "0" />
  <flow id = "172" from = "fsalidacruce-01-02" to = "fsalidacruce-01-01" begin = "0"end = "300" no = "0" />
  <flow id = "173" from = "fsalidacruce-01-02" to = "fentradacruce-01-01" begin = "0"end = "300" no = "0" />
  <flow id = "174" from = "fsalidacruce-01-02" to = "fsalidacruce-01-02" begin = "0"end = "300" no = "0" />
  <flow id = "175" from = "fsalidacruce-01-02" to = "fentradacruce-01-02" begin = "0"end = "300" no = "0" />
  <flow id = "176" from = "fsalidacruce-01-02" to = "fsalidacruce-02-01" begin = "0"end = "300" no = "0" />
  <flow id = "177" from = "fsalidacruce-01-02" to = "fentradacruce-02-01" begin = "0"end = "300" no = "0" />
  <flow id = "178" from = "fsalidacruce-01-02" to = "fsalidacruce-02-02" begin = "0"end = "300" no = "0" />
  <flow id = "179" from = "fsalidacruce-01-02" to = "fentradacruce-02-02" begin = "0"end = "300" no = "0" />
  <flow id = "180" from = "fsalidacruce-01-02" to = "fsalidacruce-03-01" begin = "0"end = "300" no = "0" />
  <flow id = "181" from = "fsalidacruce-01-02" to = "fentradacruce-03-01" begin = "0"end = "300" no = "0" />
  <flow id = "182" from = "fsalidacruce-01-02" to = "fsalidaSid01-02" begin = "0"end = "300" no = "0" />
  <flow id = "183" from = "fsalidacruce-01-02" to = "fentradaSid01-02" begin = "0"end = "300" no = "0" />
  <flow id = "184" from = "fsalidacruce-01-02" to = "fsalidaSid02-01" begin = "0"end = "300" no = "0" />
  <flow id = "185" from = "fsalidacruce-01-02" to = "fentradaSid02-01" begin = "0"end = "300" no = "0" />
  <flow id = "186" from = "fsalidacruce-01-02" to = "fsalidaSid02-02" begin = "0"end = "300" no = "0" />
  <flow id = "187" from = "fsalidacruce-01-02" to = "fentradaSid02-02" begin = "0"end = "300" no = "0" />
  <flow id = "188" from = "fsalidacruce-01-02" to = "fsalidaSid02-03" begin = "0"end = "300" no = "0" />
  <flow id = "189" from = "fsalidacruce-01-02" to = "fentradaSid02-03" begin = "0"end = "300" no = "0" />
  <flow id = "190" from = "fsalidacruce-01-02" to = "fsalidacruce+01-01" begin = "0"end = "300" no = "0" />
  <flow id = "191" from = "fsalidacruce-01-02" to = "fentradacruce+01-01" begin = "0"end = "300" no = "0" />
  <flow id = "192" from = "fsalidacruce-01-02" to = "fsalidacruce+01-02" begin = "0"end = "300" no = "0" />
  <flow id = "193" from = "fsalidacruce-01-02" to = "fentradacruce+01-02" begin = "0"end = "300" no = "0" />
  <flow id = "194" from = "fsalidacruce-01-02" to = "fsalidacruce+02-01" begin = "0"end = "300" no = "0" />
  <flow id = "195" from = "fsalidacruce-01-02" to = "fentradacruce+02-01" begin = "0"end = "300" no = "0" />
  <flow id = "196" from = "fsalidacruce-01-02" to = "fsalidacruce+02-02" begin = "0"end = "300" no = "0" />
  <flow id = "197" from = "fsalidacruce-01-02" to = "fentradacruce+02-02" begin = "0"end = "300" no = "0" />
  <flow id = "198" from = "fsalidacruce-01-02" to = "fsalidacrucenacion-02" begin = "0"end = "300" no = "0" />
  <flow id = "199" from = "fsalidacruce-01-02" to = "fentradacrucenacion-02" begin = "0"end = "300" no = "0" />
  <flow id = "200" from = "fsalidacruce-01-02" to = "fsalidacrucepostnacion01-01" begin = "0"end = "300" no = "0" />
  <flow id = "201" from = "fsalidacruce-01-02" to = "fentradacrucepostnacion01-01" begin = "0"end = "300" no = "0" />
  <flow id = "202" from = "fsalidacruce-01-02" to = "fsalidacrucepostnacion01-02" begin = "0"end = "300" no = "0" />
  <flow id = "203" from = "fsalidacruce-01-02" to = "fentradacrucepostnacion01-02" begin = "0"end = "300" no = "0" />
  <flow id = "204" from = "fsalidacruce-01-02" to = "fsalidacrucepostnacion02-01" begin = "0"end = "300" no = "0" />
  <flow id = "205" from = "fsalidacruce-01-02" to = "fentradacrucepostnacion02-01" begin = "0"end = "300" no = "0" />
  <flow id = "206" from = "fsalidacruce-01-02" to = "fsalidacrucepostnacion02-02" begin = "0"end = "300" no = "0" />
  <flow id = "207" from = "fsalidacruce-01-02" to = "fentradacrucepostnacion02-02" begin = "0"end = "300" no = "0" />
  <flow id = "208" from = "fsalidacruce-01-02" to = "fsalidacruceillia01-01" begin = "0"end = "300" no = "0" />
  <flow id = "209" from = "fsalidacruce-01-02" to = "fentradacruceillia01-01" begin = "0"end = "300" no = "0" />
  <flow id = "210" from = "fsalidacruce-01-02" to = "fsalidacruceillia01-02" begin = "0"end = "300" no = "0" />
  <flow id = "211" from = "fsalidacruce-01-02" to = "fentradacruceillia01-02" begin = "0"end = "300" no = "0" />
  <flow id = "212" from = "fsalidacruce-01-02" to = "fsalidacruceillia01-04" begin = "0"end = "300" no = "0" />
  <flow id = "213" from = "fsalidacruce-01-02" to = "fentradacruceillia01-04" begin = "0"end = "300" no = "0" />
  <flow id = "214" from = "fsalidacruce-01-02" to = "fsalidacruce188+01-03" begin = "0"end = "300" no = "0" />
  <flow id = "215" from = "fsalidacruce-01-02" to = "fentradacruce188+01-03" begin = "0"end = "300" no = "0" />
  <flow id = "216" from = "fsalidacruce-01-02" to = "fsalidacruce188+01-04" begin = "0"end = "300" no = "0" />
  <flow id = "217" from = "fsalidacruce-01-02" to = "fentradacruce188+01-04" begin = "0"end = "300" no = "0" />
  <flow id = "218" from = "fsalidacruce-01-02" to = "fsalidacruce188+02-03" begin = "0"end = "300" no = "0" />
  <flow id = "219" from = "fsalidacruce-01-02" to = "fentradacruce188+02-03" begin = "0"end = "300" no = "0" />
  <flow id = "220" from = "fsalidacruce-01-02" to = "fsalidacruce188+02-04" begin = "0"end = "300" no = "0" />
  <flow id = "221" from = "fsalidacruce-01-02" to = "fentradacruce188+02-04" begin = "0"end = "300" no = "0" />
  <flow id = "222" from = "fsalidacruce-01-02" to = "fsalidacruce188+03-03" begin = "0"end = "300" no = "0" />
  <flow id = "223" from = "fsalidacruce-01-02" to = "fentradacruce188+03-03" begin = "0"end = "300" no = "0" />
  <flow id = "224" from = "fsalidacruce-01-02" to = "fsalidacruce188+03-04" begin = "0"end = "300" no = "0" />
  <flow id = "225" from = "fsalidacruce-01-02" to = "fentradacruce188+03-04" begin = "0"end = "300" no = "0" />
  <flow id = "226" from = "fsalidacruce-01-02" to = "fsalidacruce188+04-03" begin = "0"end = "300" no = "0" />
  <flow id = "227" from = "fsalidacruce-01-02" to = "fentradacruce188+04-03" begin = "0"end = "300" no = "0" />
  <flow id = "228" from = "fsalidacruce-01-02" to = "fsalidacruce188+04-04" begin = "0"end = "300" no = "0" />
  <flow id = "229" from = "fsalidacruce-01-02" to = "fentradacruce188+04-04" begin = "0"end = "300" no = "0" />
  <flow id = "230" from = "fsalidacruce-01-02" to = "fsalidacruce188+05-01" begin = "0"end = "300" no = "0" />
  <flow id = "231" from = "fsalidacruce-01-02" to = "fentradacruce188+05-01" begin = "0"end = "300" no = "0" />
  <flow id = "232" from = "fsalidacruce-01-02" to = "fsalidacruce188+05-04" begin = "0"end = "300" no = "0" />
  <flow id = "233" from = "fsalidacruce-01-02" to = "fentradacruce188+05-03" begin = "0"end = "300" no = "0" />
  <flow id = "234" from = "fsalidacruce-01-02" to = "fsalidacruce188+05-04" begin = "0"end = "300" no = "0" />
  <flow id = "235" from = "fsalidacruce-01-02" to = "fentradacruce188+05-04" begin = "0"end = "300" no = "0" />
  <flow id = "236" from = "fsalidacruce-01-02" to = "fsalidacrucenacion+01-03" begin = "0"end = "300" no = "0" />
  <flow id = "237" from = "fsalidacruce-01-02" to = "fentradacrucenacion+01-03" begin = "0"end = "300" no = "0" />
  <flow id = "238" from = "fsalidacruce-01-02" to = "fsalidacrucenacion+01-04" begin = "0"end = "300" no = "0" />
  <flow id = "239" from = "fsalidacruce-01-02" to = "fentradacrucenacion+01-04" begin = "0"end = "300" no = "0" />
  <flow id = "240" from = "fsalidacruce-01-02" to = "fsalidacrucenacion+02-03" begin = "0"end = "300" no = "0" />
  <flow id = "241" from = "fsalidacruce-01-02" to = "fentradacrucenacion+02-03" begin = "0"end = "300" no = "0" />
  <flow id = "242" from = "fsalidacruce-01-02" to = "fsalidacrucenacion+02-04" begin = "0"end = "300" no = "0" />
  <flow id = "243" from = "fsalidacruce-01-02" to = "fentradacrucenacion+02-04" begin = "0"end = "300" no = "0" />
  <flow id = "244" from = "fsalidacruce-01-02" to = "fsalidacrucenacion+03-03" begin = "0"end = "300" no = "0" />
  <flow id = "245" from = "fsalidacruce-01-02" to = "fentradacrucenacion+03-03" begin = "0"end = "300" no = "0" />
  <flow id = "246" from = "fsalidacruce-01-02" to = "fsalidacrucenacion+03-04" begin = "0"end = "300" no = "0" />
  <flow id = "247" from = "fsalidacruce-01-02" to = "fentradacrucenacion+03-04" begin = "0"end = "300" no = "0" />
  <flow id = "248" from = "fsalidacruce-01-02" to = "fsalidacrucenacion+04-03" begin = "0"end = "300" no = "0" />
  <flow id = "249" from = "fsalidacruce-01-02" to = "fentradacrucenacion+04-03" begin = "0"end = "300" no = "0" />
  <flow id = "250" from = "fsalidacruce-01-02" to = "fsalidacrucenacion+04-04" begin = "0"end = "300" no = "0" />
  <flow id = "251" from = "fsalidacruce-01-02" to = "fentradacrucenacion+04-04" begin = "0"end = "300" no = "0" />
  <flow id = "252" from = "fsalidacruce-01-02" to = "fsalidacrucenacion+05-01" begin = "0"end = "300" no = "0" />
  <flow id = "253" from = "fsalidacruce-01-02" to = "fentradacrucenacion+05-01" begin = "0"end = "300" no = "0" />
  <flow id = "254" from = "fsalidacruce-01-02" to = "fsalidacrucenacion+05-03" begin = "0"end = "300" no = "0" />
  <flow id = "255" from = "fsalidacruce-01-02" to = "fentradacrucenacion+05-03" begin = "0"end = "300" no = "0" />
  <flow id = "256" from = "fsalidacruce-01-02" to = "fsalidacrucenacion+05-04" begin = "0"end = "300" no = "0" />
  <flow id = "257" from = "fsalidacruce-01-02" to = "fentradacrucenacion+05-04" begin = "0"end = "300" no = "0" />
  <flow id = "258" from = "fentradacruce-01-02" to = "fsalidacruce-01-01" begin = "0"end = "300" no = "0" />
  <flow id = "259" from = "fentradacruce-01-02" to = "fentradacruce-01-01" begin = "0"end = "300" no = "0" />
  <flow id = "260" from = "fentradacruce-01-02" to = "fsalidacruce-01-02" begin = "0"end = "300" no = "0" />
  <flow id = "261" from = "fentradacruce-01-02" to = "fentradacruce-01-02" begin = "0"end = "300" no = "0" />
  <flow id = "262" from = "fentradacruce-01-02" to = "fsalidacruce-02-01" begin = "0"end = "300" no = "0" />
  <flow id = "263" from = "fentradacruce-01-02" to = "fentradacruce-02-01" begin = "0"end = "300" no = "0" />
  <flow id = "264" from = "fentradacruce-01-02" to = "fsalidacruce-02-02" begin = "0"end = "300" no = "0" />
  <flow id = "265" from = "fentradacruce-01-02" to = "fentradacruce-02-02" begin = "0"end = "300" no = "0" />
  <flow id = "266" from = "fentradacruce-01-02" to = "fsalidacruce-03-01" begin = "0"end = "300" no = "0" />
  <flow id = "267" from = "fentradacruce-01-02" to = "fentradacruce-03-01" begin = "0"end = "300" no = "0" />