<?xml version="1.0" encoding="UTF-8"?>
<nodes xmlns:xsi="http://www.w3.org/2001/XMLSchema-instance"
 xsi:noNamespaceSchemaLocation="http://sumo.sf.net/xsd/nodes_file.xsd">
   <node id="crc_rotonda188" x="0.0" y="0.0" />
   <node id="crc_cruce-01" x="-500.0" y="0.0" />
   <node id="crc_cruce-02" x="-1500.0" y="0.0" />  
   <node id="crc_cruce-03" x="-2500.0" y="0.0" /> 
   <node id="crc_rotondaSid01" x="-3500.0" y="0.0" /> 	
   <node id="crc_rotondaSid02" x="-4500.0" y="0.0" /> 	 
   <node id="crc_cruce+01" x="1500.0" y="0.0" /> 	 
   <node id="crc_cruce+02" x="3500.0" y="0.0" /> 
   <node id="crc_crucenacion" x="4500.0" y="0.0" /> 
   <node id="crc_crucepostnacion01" x="5500.0" y="0.0" />   
   <node id="crc_crucepostnacion02" x="6500.0" y="0.0" />  
   <node id="crc_crucedesvioillia" x="7000.0" y="-1500.0" />  
   <node id="crc_cruceillia01" x="8000.0" y="-1500.0" />  

   <node id="crc_188+01" x="0.0" y="1000.0" />   
   <node id="crc_188+02" x="0.0" y="2000.0" />  
   <node id="crc_188+03" x="0.0" y="3000.0" />  
   <node id="crc_188+04" x="0.0" y="4000.0" />  
   <node id="crc_188+05" x="0.0" y="5000.0" />  
   
   <node id="crc_nacion+01" x="4500.0" y="1000.0" />   
   <node id="crc_nacion+02" x="4500.0" y="2000.0" />  
   <node id="crc_nacion+03" x="4500.0" y="3000.0" />  
   <node id="crc_nacion+04" x="4500.0" y="4000.0" />  
   <node id="crc_nacion+05" x="4500.0" y="5000.0" />     
 
   <node id="nod_cruce-01-01" x="-500.0" y="500.0" />
   <node id="fnod_cruce-01-01" x="-510.0" y="500.0" />   
   <node id="nod_cruce-01-02" x="-500.0" y="-500.0" />  
   <node id="fnod_cruce-01-02" x="-510.0" y="-500.0" />     
   <node id="nod_cruce-02-01" x="-1500.0" y="500.0" />  
   <node id="fnod_cruce-02-01" x="-1510.0" y="500.0" />    
   <node id="nod_cruce-02-02" x="-1500.0" y="-500.0" />  
   <node id="fnod_cruce-02-02" x="-1510.0" y="-500.0" />     
   <node id="nod_cruce-03-01" x="-2500.0" y="500.0" /> 
   <node id="fnod_cruce-03-01" x="-2510.0" y="500.0" />    

   <node id="nod_rotondaSid01-02" x="-3500.0" y="-1000.0" />   
   <node id="fnod_rotondaSid01-02" x="-3510.0" y="-1000.0" />     
   <node id="nod_rotondaSid02-01" x="-4500.0" y="200.0" />  
   <node id="fnod_rotondaSid02-01" x="-4510.0" y="200.0" />     
   <node id="nod_rotondaSid02-02" x="-4500.0" y="-1000.0" />  
   <node id="fnod_rotondaSid02-02" x="-4510.0" y="-1000.0" />     
   <node id="nod_rotondaSid02-03" x="-5000.0" y="0.0" />   
   <node id="fnod_rotondaSid02-03" x="-5010.0" y="0.0" />      

   <node id="nod_cruce+01-01" x="1500.0" y="500.0" />   
   <node id="fnod_cruce+01-01" x="1510.0" y="500.0" />     
   <node id="nod_cruce+01-02" x="1500.0" y="-500.0" /> 
   <node id="fnod_cruce+01-02" x="1510.0" y="-500.0" />    
   <node id="nod_cruce+02-01" x="3500.0" y="500.0" />  
   <node id="fnod_cruce+02-01" x="3510.0" y="500.0" />     
   <node id="nod_cruce+02-02" x="3500.0" y="-500.0" /> 
   <node id="fnod_cruce+02-02" x="3510.0" y="-500.0" />    

   <node id="nod_crucenacion-02" x="4500.0" y="-500.0" /> 
   <node id="fnod_crucenacion-02" x="4510.0" y="-500.0" /> 
   
   <node id="nod_crucepostnacion01-01" x="5500.0" y="500.0" />    
   <node id="fnod_crucepostnacion01-01" x="5510.0" y="500.0" />      
   <node id="nod_crucepostnacion01-02" x="5500.0" y="-500.0" /> 
   <node id="fnod_crucepostnacion01-02" x="5510.0" y="-500.0" />    
   
   <node id="nod_crucepostnacion02-01" x="6500.0" y="500.0" />   
   <node id="fnod_crucepostnacion02-01" x="6510.0" y="500.0" />     
   <node id="nod_crucepostnacion02-02" x="6500.0" y="-500.0" />   
   <node id="fnod_crucepostnacion02-02" x="6510.0" y="-500.0" />     

   <node id="nod_cruceillia01-01" x="8000.0" y="-1000.0" />  
   <node id="fnod_cruceillia01-01" x="8010.0" y="-1000.0" />     
   <node id="nod_cruceillia01-02" x="8000.0" y="-2000.0" />     
   <node id="fnod_cruceillia01-02" x="8010.0" y="-2000.0" />      
   <node id="nod_cruceillia01-04" x="8500.0" y="-1500.0" />
   <node id="fnod_cruceillia01-04" x="8510.0" y="-1500.0" />   

   <node id="nod_188+01-03" x="-500.0" y="1000.0" /> 
   <node id="fnod_188+01-03" x="-510.0" y="1000.0" />   
   <node id="nod_188+01-04" x="500.0" y="1000.0" />    
   <node id="fnod_188+01-04" x="510.0" y="1000.0" />       
   <node id="nod_188+02-03" x="-500.0" y="2000.0" />  
   <node id="fnod_188+02-03" x="-510.0" y="2000.0" />     
   <node id="nod_188+02-04" x="500.0" y="2000.0" />    
   <node id="fnod_188+02-04" x="510.0" y="2000.0" />       
   <node id="nod_188+03-03" x="-500.0" y="3000.0" />  
   <node id="fnod_188+03-03" x="-510.0" y="3000.0" />    
   <node id="nod_188+03-04" x="500.0" y="3000.0" />    
   <node id="fnod_188+03-04" x="510.0" y="3000.0" />    
   <node id="nod_188+04-03" x="-500.0" y="4000.0" /> 
   <node id="fnod_188+04-03" x="-510.0" y="4000.0" />   
   <node id="nod_188+04-04" x="500.0" y="4000.0" />  
   <node id="fnod_188+04-04" x="510.0" y="4000.0" />     
   <node id="nod_188+05-01" x="0.0" y="5500.0" />     
   <node id="fnod_188+05-01" x="0.0" y="5510.0" />       
   <node id="nod_188+05-03" x="-500.0" y="5000.0" />  
   <node id="fnod_188+05-03" x="-510.0" y="5000.0" />     
   <node id="nod_188+05-04" x="500.0" y="5000.0" />  
   <node id="fnod_188+05-04" x="510.0" y="5000.0" />     
   
   
   <node id="nod_nacion-01-03" x="4000.0" y="-1000.0" />  
   <node id="fnod_nacion-01-03" x="3990.0" y="-1000.0" />     
   <node id="nod_nacion-01-04" x="5000.0" y="-1000.0" />  
   <node id="fnod_nacion-01-04" x="5010.0" y="-1000.0" />     
   <node id="nod_nacion+01-03" x="4000.0" y="1000.0" />  
   <node id="fnod_nacion+01-03" x="3990.0" y="1000.0" />     
   <node id="nod_nacion+01-04" x="5000.0" y="1000.0" />  
   <node id="fnod_nacion+01-04" x="5010.0" y="1000.0" />     
   <node id="nod_nacion+02-03" x="4000.0" y="2000.0" />  
   <node id="fnod_nacion+02-03" x="3990.0" y="2000.0" />    
   <node id="nod_nacion+02-04" x="5000.0" y="2000.0" /> 
   <node id="fnod_nacion+02-04" x="5010.0" y="2000.0" />    
   <node id="nod_nacion+03-03" x="4000.0" y="3000.0" />  
   <node id="fnod_nacion+03-03" x="3990.0" y="3000.0" />     
   <node id="nod_nacion+03-04" x="5000.0" y="3000.0" />   
   <node id="fnod_nacion+03-04" x="5010.0" y="3000.0" />     
   <node id="nod_nacion+04-03" x="4000.0" y="4000.0" />  
   <node id="fnod_nacion+04-03" x="3990.0" y="4000.0" />     
   <node id="nod_nacion+04-04" x="5000.0" y="4000.0" /> 
   <node id="fnod_nacion+04-04" x="5010.0" y="4000.0" />    
   <node id="nod_nacion+05-01" x="4500.0" y="5500.0" />  
   <node id="fnod_nacion+05-01" x="4500.0" y="5510.0" />     
   <node id="nod_nacion+05-03" x="4000.0" y="5000.0" />  
   <node id="fnod_nacion+05-03" x="3990.0" y="5000.0" />     
   <node id="nod_nacion+05-04" x="5000.0" y="5000.0" />    
   <node id="fnod_nacion+05-04" x="5010.0" y="5000.0" />   
   
</nodes>