<?xml version="1.0" encoding="iso-8859-1"?>

<!-- generated on 06/11/12 17:04:24 by SUMO netconvert Version 0.13.1
<?xml version="1.0" encoding="iso-8859-1"?>

<configuration xmlns:xsi="http://www.w3.org/2001/XMLSchema-instance" xsi:noNamespaceSchemaLocation="http://sumo.sf.net/xsd/netconvertConfiguration.xsd">

    <input>
        <node-files value="D:\Compartido\Proyectos\SUMO\SNResumido\SNResumido.nod.xml"/>
        <edge-files value="D:\Compartido\Proyectos\SUMO\SNResumido\SNResumido.edg.xml"/>
        <type-files value="D:\Compartido\Proyectos\SUMO\SNResumido\SNResumido.typ.xml"/>
    </input>

    <output>
        <output-file value="D:\Compartido\Proyectos\SUMO\SNResumido\SNResumido.net.xml"/>
    </output>

    <processing>
        <no-turnarounds value="true"/>
    </processing>

</configuration>
-->

<net version="0.13" xmlns:xsi="http://www.w3.org/2001/XMLSchema-instance" xsi:noNamespaceSchemaLocation="http://sumo.sf.net/xsd/net_file.xsd">

    <location netOffset="5010.00,2000.00" convBoundary="0.00,0.00,13520.00,7510.00" origBoundary="-5010.00,-2000.00,8510.00,5510.00" projParameter="!"/>

    <edge id=":crc_188+01_0" function="internal">
        <lane id=":crc_188+01_0_0" index="0" speed="13.89" length="5.00" shape="5001.75,3011.35 5001.56,3009.99 5000.97,3009.03 5000.01,3008.44 4998.65,3008.25"/>
    </edge>
    <edge id=":crc_188+01_1" function="internal">
        <lane id=":crc_188+01_1_0" index="0" speed="13.89" length="22.70" shape="5001.75,3011.35 5001.75,3004.61 5001.75,3000.00 5001.75,2995.39 5001.75,2988.65"/>
    </edge>
    <edge id=":crc_188+01_2" function="internal">
        <lane id=":crc_188+01_2_0" index="0" speed="13.89" length="22.70" shape="5005.05,3011.35 5005.05,3004.61 5005.05,3000.00 5005.05,2995.39 5005.05,2988.65"/>
    </edge>
    <edge id=":crc_188+01_3" function="internal">
        <lane id=":crc_188+01_3_0" index="0" speed="13.89" length="22.70" shape="5008.35,3011.35 5008.35,3004.61 5008.35,3000.00 5008.35,2995.39 5008.35,2988.65"/>
    </edge>
    <edge id=":crc_188+01_4" function="internal">
        <lane id=":crc_188+01_4_0" index="0" speed="13.89" length="10.48" shape="5008.35,3011.35 5009.16,3005.66 5011.60,3001.60"/>
    </edge>
    <edge id=":crc_188+01_16" function="internal">
        <lane id=":crc_188+01_16_0" index="0" speed="13.89" length="10.48" shape="5011.60,3001.60 5015.66,2999.16 5021.35,2998.35"/>
    </edge>
    <edge id=":crc_188+01_5" function="internal">
        <lane id=":crc_188+01_5_0" index="0" speed="13.89" length="5.00" shape="5021.35,3008.25 5019.99,3008.44 5019.03,3009.03 5018.44,3009.99 5018.25,3011.35"/>
    </edge>
    <edge id=":crc_188+01_6" function="internal">
        <lane id=":crc_188+01_6_0" index="0" speed="13.89" length="22.70" shape="5021.35,3004.95 5014.61,3004.95 5010.00,3004.95 5005.39,3004.95 4998.65,3004.95"/>
    </edge>
    <edge id=":crc_188+01_7" function="internal">
        <lane id=":crc_188+01_7_0" index="0" speed="13.89" length="20.97" shape="5021.35,3001.65 5015.66,3000.84 5011.60,2998.40 5009.16,2994.34 5008.35,2988.65"/>
    </edge>
    <edge id=":crc_188+01_8" function="internal">
        <lane id=":crc_188+01_8_0" index="0" speed="13.89" length="5.00" shape="5018.25,2988.65 5018.44,2990.01 5019.03,2990.97 5019.99,2991.56 5021.35,2991.75"/>
    </edge>
    <edge id=":crc_188+01_9" function="internal">
        <lane id=":crc_188+01_9_0" index="0" speed="13.89" length="22.70" shape="5018.25,2988.65 5018.25,2995.39 5018.25,3000.00 5018.25,3004.61 5018.25,3011.35"/>
    </edge>
    <edge id=":crc_188+01_10" function="internal">
        <lane id=":crc_188+01_10_0" index="0" speed="13.89" length="22.70" shape="5014.95,2988.65 5014.95,2995.39 5014.95,3000.00 5014.95,3004.61 5014.95,3011.35"/>
    </edge>
    <edge id=":crc_188+01_11" function="internal">
        <lane id=":crc_188+01_11_0" index="0" speed="13.89" length="22.70" shape="5011.65,2988.65 5011.65,2995.39 5011.65,3000.00 5011.65,3004.61 5011.65,3011.35"/>
    </edge>
    <edge id=":crc_188+01_12" function="internal">
        <lane id=":crc_188+01_12_0" index="0" speed="13.89" length="10.48" shape="5011.65,2988.65 5010.84,2994.34 5008.40,2998.40"/>
    </edge>
    <edge id=":crc_188+01_17" function="internal">
        <lane id=":crc_188+01_17_0" index="0" speed="13.89" length="10.48" shape="5008.40,2998.40 5004.34,3000.84 4998.65,3001.65"/>
    </edge>
    <edge id=":crc_188+01_13" function="internal">
        <lane id=":crc_188+01_13_0" index="0" speed="13.89" length="5.00" shape="4998.65,2991.75 5000.01,2991.56 5000.97,2990.97 5001.56,2990.01 5001.75,2988.65"/>
    </edge>
    <edge id=":crc_188+01_14" function="internal">
        <lane id=":crc_188+01_14_0" index="0" speed="13.89" length="22.70" shape="4998.65,2995.05 5005.39,2995.05 5010.00,2995.05 5014.61,2995.05 5021.35,2995.05"/>
    </edge>
    <edge id=":crc_188+01_15" function="internal">
        <lane id=":crc_188+01_15_0" index="0" speed="13.89" length="20.97" shape="4998.65,2998.35 5004.34,2999.16 5008.40,3001.60 5010.84,3005.66 5011.65,3011.35"/>
    </edge>
    <edge id=":crc_188+02_0" function="internal">
        <lane id=":crc_188+02_0_0" index="0" speed="13.89" length="5.00" shape="5001.75,4011.35 5001.56,4009.99 5000.97,4009.03 5000.01,4008.44 4998.65,4008.25"/>
    </edge>
    <edge id=":crc_188+02_1" function="internal">
        <lane id=":crc_188+02_1_0" index="0" speed="13.89" length="22.70" shape="5001.75,4011.35 5001.75,4004.61 5001.75,4000.00 5001.75,3995.39 5001.75,3988.65"/>
    </edge>
    <edge id=":crc_188+02_2" function="internal">
        <lane id=":crc_188+02_2_0" index="0" speed="13.89" length="22.70" shape="5005.05,4011.35 5005.05,4004.61 5005.05,4000.00 5005.05,3995.39 5005.05,3988.65"/>
    </edge>
    <edge id=":crc_188+02_3" function="internal">
        <lane id=":crc_188+02_3_0" index="0" speed="13.89" length="22.70" shape="5008.35,4011.35 5008.35,4004.61 5008.35,4000.00 5008.35,3995.39 5008.35,3988.65"/>
    </edge>
    <edge id=":crc_188+02_4" function="internal">
        <lane id=":crc_188+02_4_0" index="0" speed="13.89" length="10.48" shape="5008.35,4011.35 5009.16,4005.66 5011.60,4001.60"/>
    </edge>
    <edge id=":crc_188+02_16" function="internal">
        <lane id=":crc_188+02_16_0" index="0" speed="13.89" length="10.48" shape="5011.60,4001.60 5015.66,3999.16 5021.35,3998.35"/>
    </edge>
    <edge id=":crc_188+02_5" function="internal">
        <lane id=":crc_188+02_5_0" index="0" speed="13.89" length="5.00" shape="5021.35,4008.25 5019.99,4008.44 5019.03,4009.03 5018.44,4009.99 5018.25,4011.35"/>
    </edge>
    <edge id=":crc_188+02_6" function="internal">
        <lane id=":crc_188+02_6_0" index="0" speed="13.89" length="22.70" shape="5021.35,4004.95 5014.61,4004.95 5010.00,4004.95 5005.39,4004.95 4998.65,4004.95"/>
    </edge>
    <edge id=":crc_188+02_7" function="internal">
        <lane id=":crc_188+02_7_0" index="0" speed="13.89" length="20.97" shape="5021.35,4001.65 5015.66,4000.84 5011.60,3998.40 5009.16,3994.34 5008.35,3988.65"/>
    </edge>
    <edge id=":crc_188+02_8" function="internal">
        <lane id=":crc_188+02_8_0" index="0" speed="13.89" length="5.00" shape="5018.25,3988.65 5018.44,3990.01 5019.03,3990.97 5019.99,3991.56 5021.35,3991.75"/>
    </edge>
    <edge id=":crc_188+02_9" function="internal">
        <lane id=":crc_188+02_9_0" index="0" speed="13.89" length="22.70" shape="5018.25,3988.65 5018.25,3995.39 5018.25,4000.00 5018.25,4004.61 5018.25,4011.35"/>
    </edge>
    <edge id=":crc_188+02_10" function="internal">
        <lane id=":crc_188+02_10_0" index="0" speed="13.89" length="22.70" shape="5014.95,3988.65 5014.95,3995.39 5014.95,4000.00 5014.95,4004.61 5014.95,4011.35"/>
    </edge>
    <edge id=":crc_188+02_11" function="internal">
        <lane id=":crc_188+02_11_0" index="0" speed="13.89" length="22.70" shape="5011.65,3988.65 5011.65,3995.39 5011.65,4000.00 5011.65,4004.61 5011.65,4011.35"/>
    </edge>
    <edge id=":crc_188+02_12" function="internal">
        <lane id=":crc_188+02_12_0" index="0" speed="13.89" length="10.48" shape="5011.65,3988.65 5010.84,3994.34 5008.40,3998.40"/>
    </edge>
    <edge id=":crc_188+02_17" function="internal">
        <lane id=":crc_188+02_17_0" index="0" speed="13.89" length="10.48" shape="5008.40,3998.40 5004.34,4000.84 4998.65,4001.65"/>
    </edge>
    <edge id=":crc_188+02_13" function="internal">
        <lane id=":crc_188+02_13_0" index="0" speed="13.89" length="5.00" shape="4998.65,3991.75 5000.01,3991.56 5000.97,3990.97 5001.56,3990.01 5001.75,3988.65"/>
    </edge>
    <edge id=":crc_188+02_14" function="internal">
        <lane id=":crc_188+02_14_0" index="0" speed="13.89" length="22.70" shape="4998.65,3995.05 5005.39,3995.05 5010.00,3995.05 5014.61,3995.05 5021.35,3995.05"/>
    </edge>
    <edge id=":crc_188+02_15" function="internal">
        <lane id=":crc_188+02_15_0" index="0" speed="13.89" length="20.97" shape="4998.65,3998.35 5004.34,3999.16 5008.40,4001.60 5010.84,4005.66 5011.65,4011.35"/>
    </edge>
    <edge id=":crc_188+03_0" function="internal">
        <lane id=":crc_188+03_0_0" index="0" speed="13.89" length="5.00" shape="5001.75,5011.35 5001.56,5009.99 5000.97,5009.02 5000.01,5008.44 4998.65,5008.25"/>
    </edge>
    <edge id=":crc_188+03_1" function="internal">
        <lane id=":crc_188+03_1_0" index="0" speed="13.89" length="22.70" shape="5001.75,5011.35 5001.75,5004.61 5001.75,5000.00 5001.75,4995.39 5001.75,4988.65"/>
    </edge>
    <edge id=":crc_188+03_2" function="internal">
        <lane id=":crc_188+03_2_0" index="0" speed="13.89" length="22.70" shape="5005.05,5011.35 5005.05,5004.61 5005.05,5000.00 5005.05,4995.39 5005.05,4988.65"/>
    </edge>
    <edge id=":crc_188+03_3" function="internal">
        <lane id=":crc_188+03_3_0" index="0" speed="13.89" length="22.70" shape="5008.35,5011.35 5008.35,5004.61 5008.35,5000.00 5008.35,4995.39 5008.35,4988.65"/>
    </edge>
    <edge id=":crc_188+03_4" function="internal">
        <lane id=":crc_188+03_4_0" index="0" speed="13.89" length="10.48" shape="5008.35,5011.35 5009.16,5005.66 5011.60,5001.60"/>
    </edge>
    <edge id=":crc_188+03_16" function="internal">
        <lane id=":crc_188+03_16_0" index="0" speed="13.89" length="10.48" shape="5011.60,5001.60 5015.66,4999.16 5021.35,4998.35"/>
    </edge>
    <edge id=":crc_188+03_5" function="internal">
        <lane id=":crc_188+03_5_0" index="0" speed="13.89" length="5.00" shape="5021.35,5008.25 5019.99,5008.44 5019.03,5009.02 5018.44,5009.99 5018.25,5011.35"/>
    </edge>
    <edge id=":crc_188+03_6" function="internal">
        <lane id=":crc_188+03_6_0" index="0" speed="13.89" length="22.70" shape="5021.35,5004.95 5014.61,5004.95 5010.00,5004.95 5005.39,5004.95 4998.65,5004.95"/>
    </edge>
    <edge id=":crc_188+03_7" function="internal">
        <lane id=":crc_188+03_7_0" index="0" speed="13.89" length="20.97" shape="5021.35,5001.65 5015.66,5000.84 5011.60,4998.40 5009.16,4994.34 5008.35,4988.65"/>
    </edge>
    <edge id=":crc_188+03_8" function="internal">
        <lane id=":crc_188+03_8_0" index="0" speed="13.89" length="5.00" shape="5018.25,4988.65 5018.44,4990.01 5019.03,4990.98 5019.99,4991.56 5021.35,4991.75"/>
    </edge>
    <edge id=":crc_188+03_9" function="internal">
        <lane id=":crc_188+03_9_0" index="0" speed="13.89" length="22.70" shape="5018.25,4988.65 5018.25,4995.39 5018.25,5000.00 5018.25,5004.61 5018.25,5011.35"/>
    </edge>
    <edge id=":crc_188+03_10" function="internal">
        <lane id=":crc_188+03_10_0" index="0" speed="13.89" length="22.70" shape="5014.95,4988.65 5014.95,4995.39 5014.95,5000.00 5014.95,5004.61 5014.95,5011.35"/>
    </edge>
    <edge id=":crc_188+03_11" function="internal">
        <lane id=":crc_188+03_11_0" index="0" speed="13.89" length="22.70" shape="5011.65,4988.65 5011.65,4995.39 5011.65,5000.00 5011.65,5004.61 5011.65,5011.35"/>
    </edge>
    <edge id=":crc_188+03_12" function="internal">
        <lane id=":crc_188+03_12_0" index="0" speed="13.89" length="10.48" shape="5011.65,4988.65 5010.84,4994.34 5008.40,4998.40"/>
    </edge>
    <edge id=":crc_188+03_17" function="internal">
        <lane id=":crc_188+03_17_0" index="0" speed="13.89" length="10.48" shape="5008.40,4998.40 5004.34,5000.84 4998.65,5001.65"/>
    </edge>
    <edge id=":crc_188+03_13" function="internal">
        <lane id=":crc_188+03_13_0" index="0" speed="13.89" length="5.00" shape="4998.65,4991.75 5000.01,4991.56 5000.97,4990.98 5001.56,4990.01 5001.75,4988.65"/>
    </edge>
    <edge id=":crc_188+03_14" function="internal">
        <lane id=":crc_188+03_14_0" index="0" speed="13.89" length="22.70" shape="4998.65,4995.05 5005.39,4995.05 5010.00,4995.05 5014.61,4995.05 5021.35,4995.05"/>
    </edge>
    <edge id=":crc_188+03_15" function="internal">
        <lane id=":crc_188+03_15_0" index="0" speed="13.89" length="20.97" shape="4998.65,4998.35 5004.34,4999.16 5008.40,5001.60 5010.84,5005.66 5011.65,5011.35"/>
    </edge>
    <edge id=":crc_188+04_0" function="internal">
        <lane id=":crc_188+04_0_0" index="0" speed="13.89" length="5.00" shape="5001.75,6011.35 5001.56,6009.99 5000.97,6009.02 5000.01,6008.44 4998.65,6008.25"/>
    </edge>
    <edge id=":crc_188+04_1" function="internal">
        <lane id=":crc_188+04_1_0" index="0" speed="13.89" length="22.70" shape="5001.75,6011.35 5001.75,6004.61 5001.75,6000.00 5001.75,5995.39 5001.75,5988.65"/>
    </edge>
    <edge id=":crc_188+04_2" function="internal">
        <lane id=":crc_188+04_2_0" index="0" speed="13.89" length="22.70" shape="5005.05,6011.35 5005.05,6004.61 5005.05,6000.00 5005.05,5995.39 5005.05,5988.65"/>
    </edge>
    <edge id=":crc_188+04_3" function="internal">
        <lane id=":crc_188+04_3_0" index="0" speed="13.89" length="22.70" shape="5008.35,6011.35 5008.35,6004.61 5008.35,6000.00 5008.35,5995.39 5008.35,5988.65"/>
    </edge>
    <edge id=":crc_188+04_4" function="internal">
        <lane id=":crc_188+04_4_0" index="0" speed="13.89" length="10.48" shape="5008.35,6011.35 5009.16,6005.66 5011.60,6001.60"/>
    </edge>
    <edge id=":crc_188+04_16" function="internal">
        <lane id=":crc_188+04_16_0" index="0" speed="13.89" length="10.48" shape="5011.60,6001.60 5015.66,5999.16 5021.35,5998.35"/>
    </edge>
    <edge id=":crc_188+04_5" function="internal">
        <lane id=":crc_188+04_5_0" index="0" speed="13.89" length="5.00" shape="5021.35,6008.25 5019.99,6008.44 5019.03,6009.02 5018.44,6009.99 5018.25,6011.35"/>
    </edge>
    <edge id=":crc_188+04_6" function="internal">
        <lane id=":crc_188+04_6_0" index="0" speed="13.89" length="22.70" shape="5021.35,6004.95 5014.61,6004.95 5010.00,6004.95 5005.39,6004.95 4998.65,6004.95"/>
    </edge>
    <edge id=":crc_188+04_7" function="internal">
        <lane id=":crc_188+04_7_0" index="0" speed="13.89" length="20.97" shape="5021.35,6001.65 5015.66,6000.84 5011.60,5998.40 5009.16,5994.34 5008.35,5988.65"/>
    </edge>
    <edge id=":crc_188+04_8" function="internal">
        <lane id=":crc_188+04_8_0" index="0" speed="13.89" length="5.00" shape="5018.25,5988.65 5018.44,5990.01 5019.03,5990.98 5019.99,5991.56 5021.35,5991.75"/>
    </edge>
    <edge id=":crc_188+04_9" function="internal">
        <lane id=":crc_188+04_9_0" index="0" speed="13.89" length="22.70" shape="5018.25,5988.65 5018.25,5995.39 5018.25,6000.00 5018.25,6004.61 5018.25,6011.35"/>
    </edge>
    <edge id=":crc_188+04_10" function="internal">
        <lane id=":crc_188+04_10_0" index="0" speed="13.89" length="22.70" shape="5014.95,5988.65 5014.95,5995.39 5014.95,6000.00 5014.95,6004.61 5014.95,6011.35"/>
    </edge>
    <edge id=":crc_188+04_11" function="internal">
        <lane id=":crc_188+04_11_0" index="0" speed="13.89" length="22.70" shape="5011.65,5988.65 5011.65,5995.39 5011.65,6000.00 5011.65,6004.61 5011.65,6011.35"/>
    </edge>
    <edge id=":crc_188+04_12" function="internal">
        <lane id=":crc_188+04_12_0" index="0" speed="13.89" length="10.48" shape="5011.65,5988.65 5010.84,5994.34 5008.40,5998.40"/>
    </edge>
    <edge id=":crc_188+04_17" function="internal">
        <lane id=":crc_188+04_17_0" index="0" speed="13.89" length="10.48" shape="5008.40,5998.40 5004.34,6000.84 4998.65,6001.65"/>
    </edge>
    <edge id=":crc_188+04_13" function="internal">
        <lane id=":crc_188+04_13_0" index="0" speed="13.89" length="5.00" shape="4998.65,5991.75 5000.01,5991.56 5000.97,5990.98 5001.56,5990.01 5001.75,5988.65"/>
    </edge>
    <edge id=":crc_188+04_14" function="internal">
        <lane id=":crc_188+04_14_0" index="0" speed="13.89" length="22.70" shape="4998.65,5995.05 5005.39,5995.05 5010.00,5995.05 5014.61,5995.05 5021.35,5995.05"/>
    </edge>
    <edge id=":crc_188+04_15" function="internal">
        <lane id=":crc_188+04_15_0" index="0" speed="13.89" length="20.97" shape="4998.65,5998.35 5004.34,5999.16 5008.40,6001.60 5010.84,6005.66 5011.65,6011.35"/>
    </edge>
    <edge id=":crc_188+05_0" function="internal">
        <lane id=":crc_188+05_0_0" index="0" speed="13.89" length="22.70" shape="5001.75,7011.35 5001.75,7004.61 5001.75,7000.00 5001.75,6995.39 5001.75,6988.65"/>
    </edge>
    <edge id=":crc_188+05_1" function="internal">
        <lane id=":crc_188+05_1_0" index="0" speed="13.89" length="22.70" shape="5005.05,7011.35 5005.05,7004.61 5005.05,7000.00 5005.05,6995.39 5005.05,6988.65"/>
    </edge>
    <edge id=":crc_188+05_2" function="internal">
        <lane id=":crc_188+05_2_0" index="0" speed="13.89" length="22.70" shape="5008.35,7011.35 5008.35,7004.61 5008.35,7000.00 5008.35,6995.39 5008.35,6988.65"/>
    </edge>
    <edge id=":crc_188+05_3" function="internal">
        <lane id=":crc_188+05_3_0" index="0" speed="13.89" length="10.48" shape="5008.35,7011.35 5009.16,7005.66 5011.60,7001.60"/>
    </edge>
    <edge id=":crc_188+05_14" function="internal">
        <lane id=":crc_188+05_14_0" index="0" speed="13.89" length="10.48" shape="5011.60,7001.60 5015.66,6999.16 5021.35,6998.35"/>
    </edge>
    <edge id=":crc_188+05_4" function="internal">
        <lane id=":crc_188+05_4_0" index="0" speed="13.89" length="5.00" shape="5021.35,7008.25 5019.99,7008.44 5019.03,7009.02 5018.44,7009.99 5018.25,7011.35"/>
    </edge>
    <edge id=":crc_188+05_5" function="internal">
        <lane id=":crc_188+05_5_0" index="0" speed="13.89" length="26.29" shape="5021.35,7004.95 5014.22,7003.93 5009.12,7000.88 5006.07,6995.78 5005.05,6988.65"/>
    </edge>
    <edge id=":crc_188+05_6" function="internal">
        <lane id=":crc_188+05_6_0" index="0" speed="13.89" length="20.97" shape="5021.35,7001.65 5015.66,7000.84 5011.60,6998.40 5009.16,6994.34 5008.35,6988.65"/>
    </edge>
    <edge id=":crc_188+05_7" function="internal">
        <lane id=":crc_188+05_7_0" index="0" speed="13.89" length="5.00" shape="5018.25,6988.65 5018.44,6990.01 5019.03,6990.98 5019.99,6991.56 5021.35,6991.75"/>
    </edge>
    <edge id=":crc_188+05_8" function="internal">
        <lane id=":crc_188+05_8_0" index="0" speed="13.89" length="22.70" shape="5018.25,6988.65 5018.25,6995.39 5018.25,7000.00 5018.25,7004.61 5018.25,7011.35"/>
    </edge>
    <edge id=":crc_188+05_9" function="internal">
        <lane id=":crc_188+05_9_0" index="0" speed="13.89" length="22.70" shape="5014.95,6988.65 5014.95,6995.39 5014.95,7000.00 5014.95,7004.61 5014.95,7011.35"/>
    </edge>
    <edge id=":crc_188+05_10" function="internal">
        <lane id=":crc_188+05_10_0" index="0" speed="13.89" length="22.70" shape="5011.65,6988.65 5011.65,6995.39 5011.65,7000.00 5011.65,7004.61 5011.65,7011.35"/>
    </edge>
    <edge id=":crc_188+05_11" function="internal">
        <lane id=":crc_188+05_11_0" index="0" speed="13.89" length="5.00" shape="4998.65,6991.75 5000.01,6991.56 5000.97,6990.98 5001.56,6990.01 5001.75,6988.65"/>
    </edge>
    <edge id=":crc_188+05_12" function="internal">
        <lane id=":crc_188+05_12_0" index="0" speed="13.89" length="22.70" shape="4998.65,6995.05 5005.39,6995.05 5010.00,6995.05 5014.61,6995.05 5021.35,6995.05"/>
    </edge>
    <edge id=":crc_188+05_13" function="internal">
        <lane id=":crc_188+05_13_0" index="0" speed="13.89" length="20.97" shape="4998.65,6998.35 5004.34,6999.16 5008.40,7001.60 5010.84,7005.66 5011.65,7011.35"/>
    </edge>
    <edge id=":crc_cruce+01_0" function="internal">
        <lane id=":crc_cruce+01_0_0" index="0" speed="13.89" length="5.00" shape="6501.75,2011.35 6501.56,2009.99 6500.97,2009.03 6500.01,2008.44 6498.65,2008.25"/>
    </edge>
    <edge id=":crc_cruce+01_1" function="internal">
        <lane id=":crc_cruce+01_1_0" index="0" speed="13.89" length="22.70" shape="6501.75,2011.35 6501.75,2004.61 6501.75,2000.00 6501.75,1995.39 6501.75,1988.65"/>
    </edge>
    <edge id=":crc_cruce+01_2" function="internal">
        <lane id=":crc_cruce+01_2_0" index="0" speed="13.89" length="22.70" shape="6505.05,2011.35 6505.05,2004.61 6505.05,2000.00 6505.05,1995.39 6505.05,1988.65"/>
    </edge>
    <edge id=":crc_cruce+01_3" function="internal">
        <lane id=":crc_cruce+01_3_0" index="0" speed="13.89" length="22.70" shape="6508.35,2011.35 6508.35,2004.61 6508.35,2000.00 6508.35,1995.39 6508.35,1988.65"/>
    </edge>
    <edge id=":crc_cruce+01_4" function="internal">
        <lane id=":crc_cruce+01_4_0" index="0" speed="13.89" length="10.48" shape="6508.35,2011.35 6509.16,2005.66 6511.60,2001.60"/>
    </edge>
    <edge id=":crc_cruce+01_16" function="internal">
        <lane id=":crc_cruce+01_16_0" index="0" speed="13.89" length="10.48" shape="6511.60,2001.60 6515.66,1999.16 6521.35,1998.35"/>
    </edge>
    <edge id=":crc_cruce+01_5" function="internal">
        <lane id=":crc_cruce+01_5_0" index="0" speed="13.89" length="5.00" shape="6521.35,2008.25 6519.99,2008.44 6519.03,2009.03 6518.44,2009.99 6518.25,2011.35"/>
    </edge>
    <edge id=":crc_cruce+01_6" function="internal">
        <lane id=":crc_cruce+01_6_0" index="0" speed="13.89" length="22.70" shape="6521.35,2004.95 6514.61,2004.95 6510.00,2004.95 6505.39,2004.95 6498.65,2004.95"/>
    </edge>
    <edge id=":crc_cruce+01_7" function="internal">
        <lane id=":crc_cruce+01_7_0" index="0" speed="13.89" length="20.97" shape="6521.35,2001.65 6515.66,2000.84 6511.60,1998.40 6509.16,1994.34 6508.35,1988.65"/>
    </edge>
    <edge id=":crc_cruce+01_8" function="internal">
        <lane id=":crc_cruce+01_8_0" index="0" speed="13.89" length="5.00" shape="6518.25,1988.65 6518.44,1990.01 6519.03,1990.97 6519.99,1991.56 6521.35,1991.75"/>
    </edge>
    <edge id=":crc_cruce+01_9" function="internal">
        <lane id=":crc_cruce+01_9_0" index="0" speed="13.89" length="22.70" shape="6518.25,1988.65 6518.25,1995.39 6518.25,2000.00 6518.25,2004.61 6518.25,2011.35"/>
    </edge>
    <edge id=":crc_cruce+01_10" function="internal">
        <lane id=":crc_cruce+01_10_0" index="0" speed="13.89" length="22.70" shape="6514.95,1988.65 6514.95,1995.39 6514.95,2000.00 6514.95,2004.61 6514.95,2011.35"/>
    </edge>
    <edge id=":crc_cruce+01_11" function="internal">
        <lane id=":crc_cruce+01_11_0" index="0" speed="13.89" length="22.70" shape="6511.65,1988.65 6511.65,1995.39 6511.65,2000.00 6511.65,2004.61 6511.65,2011.35"/>
    </edge>
    <edge id=":crc_cruce+01_12" function="internal">
        <lane id=":crc_cruce+01_12_0" index="0" speed="13.89" length="10.48" shape="6511.65,1988.65 6510.84,1994.34 6508.40,1998.40"/>
    </edge>
    <edge id=":crc_cruce+01_17" function="internal">
        <lane id=":crc_cruce+01_17_0" index="0" speed="13.89" length="10.48" shape="6508.40,1998.40 6504.34,2000.84 6498.65,2001.65"/>
    </edge>
    <edge id=":crc_cruce+01_13" function="internal">
        <lane id=":crc_cruce+01_13_0" index="0" speed="13.89" length="5.00" shape="6498.65,1991.75 6500.01,1991.56 6500.97,1990.97 6501.56,1990.01 6501.75,1988.65"/>
    </edge>
    <edge id=":crc_cruce+01_14" function="internal">
        <lane id=":crc_cruce+01_14_0" index="0" speed="13.89" length="22.70" shape="6498.65,1995.05 6505.39,1995.05 6510.00,1995.05 6514.61,1995.05 6521.35,1995.05"/>
    </edge>
    <edge id=":crc_cruce+01_15" function="internal">
        <lane id=":crc_cruce+01_15_0" index="0" speed="13.89" length="20.97" shape="6498.65,1998.35 6504.34,1999.16 6508.40,2001.60 6510.84,2005.66 6511.65,2011.35"/>
    </edge>
    <edge id=":crc_cruce+02_0" function="internal">
        <lane id=":crc_cruce+02_0_0" index="0" speed="13.89" length="5.00" shape="8501.75,2011.35 8501.56,2009.99 8500.97,2009.03 8500.01,2008.44 8498.65,2008.25"/>
    </edge>
    <edge id=":crc_cruce+02_1" function="internal">
        <lane id=":crc_cruce+02_1_0" index="0" speed="13.89" length="22.70" shape="8501.75,2011.35 8501.75,2004.61 8501.75,2000.00 8501.75,1995.39 8501.75,1988.65"/>
    </edge>
    <edge id=":crc_cruce+02_2" function="internal">
        <lane id=":crc_cruce+02_2_0" index="0" speed="13.89" length="22.70" shape="8505.05,2011.35 8505.05,2004.61 8505.05,2000.00 8505.05,1995.39 8505.05,1988.65"/>
    </edge>
    <edge id=":crc_cruce+02_3" function="internal">
        <lane id=":crc_cruce+02_3_0" index="0" speed="13.89" length="22.70" shape="8508.35,2011.35 8508.35,2004.61 8508.35,2000.00 8508.35,1995.39 8508.35,1988.65"/>
    </edge>
    <edge id=":crc_cruce+02_4" function="internal">
        <lane id=":crc_cruce+02_4_0" index="0" speed="13.89" length="10.48" shape="8508.35,2011.35 8509.16,2005.66 8511.60,2001.60"/>
    </edge>
    <edge id=":crc_cruce+02_16" function="internal">
        <lane id=":crc_cruce+02_16_0" index="0" speed="13.89" length="10.48" shape="8511.60,2001.60 8515.66,1999.16 8521.35,1998.35"/>
    </edge>
    <edge id=":crc_cruce+02_5" function="internal">
        <lane id=":crc_cruce+02_5_0" index="0" speed="13.89" length="5.00" shape="8521.35,2008.25 8519.99,2008.44 8519.03,2009.03 8518.44,2009.99 8518.25,2011.35"/>
    </edge>
    <edge id=":crc_cruce+02_6" function="internal">
        <lane id=":crc_cruce+02_6_0" index="0" speed="13.89" length="22.70" shape="8521.35,2004.95 8514.61,2004.95 8510.00,2004.95 8505.39,2004.95 8498.65,2004.95"/>
    </edge>
    <edge id=":crc_cruce+02_7" function="internal">
        <lane id=":crc_cruce+02_7_0" index="0" speed="13.89" length="20.97" shape="8521.35,2001.65 8515.66,2000.84 8511.60,1998.40 8509.16,1994.34 8508.35,1988.65"/>
    </edge>
    <edge id=":crc_cruce+02_8" function="internal">
        <lane id=":crc_cruce+02_8_0" index="0" speed="13.89" length="5.00" shape="8518.25,1988.65 8518.44,1990.01 8519.03,1990.97 8519.99,1991.56 8521.35,1991.75"/>
    </edge>
    <edge id=":crc_cruce+02_9" function="internal">
        <lane id=":crc_cruce+02_9_0" index="0" speed="13.89" length="22.70" shape="8518.25,1988.65 8518.25,1995.39 8518.25,2000.00 8518.25,2004.61 8518.25,2011.35"/>
    </edge>
    <edge id=":crc_cruce+02_10" function="internal">
        <lane id=":crc_cruce+02_10_0" index="0" speed="13.89" length="22.70" shape="8514.95,1988.65 8514.95,1995.39 8514.95,2000.00 8514.95,2004.61 8514.95,2011.35"/>
    </edge>
    <edge id=":crc_cruce+02_11" function="internal">
        <lane id=":crc_cruce+02_11_0" index="0" speed="13.89" length="22.70" shape="8511.65,1988.65 8511.65,1995.39 8511.65,2000.00 8511.65,2004.61 8511.65,2011.35"/>
    </edge>
    <edge id=":crc_cruce+02_12" function="internal">
        <lane id=":crc_cruce+02_12_0" index="0" speed="13.89" length="10.48" shape="8511.65,1988.65 8510.84,1994.34 8508.40,1998.40"/>
    </edge>
    <edge id=":crc_cruce+02_17" function="internal">
        <lane id=":crc_cruce+02_17_0" index="0" speed="13.89" length="10.48" shape="8508.40,1998.40 8504.34,2000.84 8498.65,2001.65"/>
    </edge>
    <edge id=":crc_cruce+02_13" function="internal">
        <lane id=":crc_cruce+02_13_0" index="0" speed="13.89" length="5.00" shape="8498.65,1991.75 8500.01,1991.56 8500.97,1990.97 8501.56,1990.01 8501.75,1988.65"/>
    </edge>
    <edge id=":crc_cruce+02_14" function="internal">
        <lane id=":crc_cruce+02_14_0" index="0" speed="13.89" length="22.70" shape="8498.65,1995.05 8505.39,1995.05 8510.00,1995.05 8514.61,1995.05 8521.35,1995.05"/>
    </edge>
    <edge id=":crc_cruce+02_15" function="internal">
        <lane id=":crc_cruce+02_15_0" index="0" speed="13.89" length="20.97" shape="8498.65,1998.35 8504.34,1999.16 8508.40,2001.60 8510.84,2005.66 8511.65,2011.35"/>
    </edge>
    <edge id=":crc_cruce-01_0" function="internal">
        <lane id=":crc_cruce-01_0_0" index="0" speed="13.89" length="5.00" shape="4501.75,2011.35 4501.56,2009.99 4500.97,2009.03 4500.01,2008.44 4498.65,2008.25"/>
    </edge>
    <edge id=":crc_cruce-01_1" function="internal">
        <lane id=":crc_cruce-01_1_0" index="0" speed="13.89" length="22.70" shape="4501.75,2011.35 4501.75,2004.61 4501.75,2000.00 4501.75,1995.39 4501.75,1988.65"/>
    </edge>
    <edge id=":crc_cruce-01_2" function="internal">
        <lane id=":crc_cruce-01_2_0" index="0" speed="13.89" length="22.70" shape="4505.05,2011.35 4505.05,2004.61 4505.05,2000.00 4505.05,1995.39 4505.05,1988.65"/>
    </edge>
    <edge id=":crc_cruce-01_3" function="internal">
        <lane id=":crc_cruce-01_3_0" index="0" speed="13.89" length="22.70" shape="4508.35,2011.35 4508.35,2004.61 4508.35,2000.00 4508.35,1995.39 4508.35,1988.65"/>
    </edge>
    <edge id=":crc_cruce-01_4" function="internal">
        <lane id=":crc_cruce-01_4_0" index="0" speed="13.89" length="10.48" shape="4508.35,2011.35 4509.16,2005.66 4511.60,2001.60"/>
    </edge>
    <edge id=":crc_cruce-01_16" function="internal">
        <lane id=":crc_cruce-01_16_0" index="0" speed="13.89" length="10.48" shape="4511.60,2001.60 4515.66,1999.16 4521.35,1998.35"/>
    </edge>
    <edge id=":crc_cruce-01_5" function="internal">
        <lane id=":crc_cruce-01_5_0" index="0" speed="13.89" length="5.00" shape="4521.35,2008.25 4519.99,2008.44 4519.03,2009.03 4518.44,2009.99 4518.25,2011.35"/>
    </edge>
    <edge id=":crc_cruce-01_6" function="internal">